<?xml version="1.0" encoding="UTF-8"?>

<!-- generated on 2025-09-29 10:31:29 by Eclipse SUMO netconvert Version 1.24.0
<netconvertConfiguration xmlns:xsi="http://www.w3.org/2001/XMLSchema-instance" xsi:noNamespaceSchemaLocation="http://sumo.dlr.de/xsd/netconvertConfiguration.xsd">

    <input>
        <sumo-net-file value="network.net.xml"/>
        <node-files value="nodes.nod.xml"/>
        <edge-files value="edges.edg.xml"/>
        <connection-files value="connections.con.xml"/>
        <tllogic-files value="traffic_lights.tll.xml"/>
    </input>

    <processing>
        <geometry.min-radius.fix.railways value="false"/>
        <geometry.avoid-overlap value="false"/>
        <geometry.max-grade.fix value="false"/>
        <offset.disable-normalization value="true"/>
        <lefthand value="0"/>
    </processing>

    <junctions>
        <no-turnarounds value="true"/>
        <junctions.corner-detail value="5"/>
        <junctions.limit-turn-speed value="5.50"/>
        <rectangular-lane-cut value="0"/>
    </junctions>

    <pedestrian>
        <walkingareas value="0"/>
    </pedestrian>

</netconvertConfiguration>
-->

<net version="1.20" junctionCornerDetail="5" limitTurnSpeed="5.50" avoidOverlap="0" xmlns:xsi="http://www.w3.org/2001/XMLSchema-instance" xsi:noNamespaceSchemaLocation="http://sumo.dlr.de/xsd/net_file.xsd">

    <location netOffset="0.00,0.00" convBoundary="-100.00,-100.00,100.00,100.00" origBoundary="-100.00,-100.00,100.00,100.00" projParameter="!"/>

    <edge id=":J_0" function="internal">
        <lane id=":J_0_0" index="0" speed="6.51" length="9.03" shape="-8.00,13.60 -8.35,11.15 -9.40,9.40 -11.15,8.35 -13.60,8.00"/>
    </edge>
    <edge id=":J_1" function="internal">
        <lane id=":J_1_0" index="0" speed="13.90" length="27.20" shape="-4.80,13.60 -4.80,-13.60"/>
    </edge>
    <edge id=":J_2" function="internal">
        <lane id=":J_2_0" index="0" speed="10.36" length="24.51" shape="-1.60,13.60 -0.65,6.95 2.20,2.20 6.95,-0.65 13.60,-1.60"/>
    </edge>
    <edge id=":J_3" function="internal">
        <lane id=":J_3_0" index="0" speed="6.51" length="9.03" shape="13.60,8.00 11.15,8.35 9.40,9.40 8.35,11.15 8.00,13.60"/>
    </edge>
    <edge id=":J_4" function="internal">
        <lane id=":J_4_0" index="0" speed="13.90" length="27.20" shape="13.60,4.80 -13.60,4.80"/>
    </edge>
    <edge id=":J_5" function="internal">
        <lane id=":J_5_0" index="0" speed="10.36" length="24.51" shape="13.60,1.60 6.95,0.65 2.20,-2.20 -0.65,-6.95 -1.60,-13.60"/>
    </edge>
    <edge id=":J_6" function="internal">
        <lane id=":J_6_0" index="0" speed="6.51" length="9.03" shape="8.00,-13.60 8.35,-11.15 9.40,-9.40 11.15,-8.35 13.60,-8.00"/>
    </edge>
    <edge id=":J_7" function="internal">
        <lane id=":J_7_0" index="0" speed="13.90" length="27.20" shape="4.80,-13.60 4.80,13.60"/>
    </edge>
    <edge id=":J_8" function="internal">
        <lane id=":J_8_0" index="0" speed="10.36" length="24.51" shape="1.60,-13.60 0.65,-6.95 -2.20,-2.20 -6.95,0.65 -13.60,1.60"/>
    </edge>
    <edge id=":J_9" function="internal">
        <lane id=":J_9_0" index="0" speed="6.51" length="9.03" shape="-13.60,-8.00 -11.15,-8.35 -9.40,-9.40 -8.35,-11.15 -8.00,-13.60"/>
    </edge>
    <edge id=":J_10" function="internal">
        <lane id=":J_10_0" index="0" speed="13.90" length="27.20" shape="-13.60,-4.80 13.60,-4.80"/>
    </edge>
    <edge id=":J_11" function="internal">
        <lane id=":J_11_0" index="0" speed="10.36" length="24.51" shape="-13.60,-1.60 -6.95,-0.65 -2.20,2.20 0.65,6.95 1.60,13.60"/>
    </edge>

    <edge id="A0" from="A" to="J" priority="-1">
        <lane id="A0_0" index="0" speed="13.90" length="86.40" shape="-8.00,100.00 -8.00,13.60"/>
        <lane id="A0_1" index="1" speed="13.90" length="86.40" shape="-4.80,100.00 -4.80,13.60"/>
        <lane id="A0_2" index="2" speed="13.90" length="86.40" shape="-1.60,100.00 -1.60,13.60"/>
    </edge>
    <edge id="A1" from="J" to="A" priority="-1">
        <lane id="A1_0" index="0" speed="13.90" length="86.40" shape="8.00,13.60 8.00,100.00"/>
        <lane id="A1_1" index="1" speed="13.90" length="86.40" shape="4.80,13.60 4.80,100.00"/>
        <lane id="A1_2" index="2" speed="13.90" length="86.40" shape="1.60,13.60 1.60,100.00"/>
    </edge>
    <edge id="B0" from="B" to="J" priority="-1">
        <lane id="B0_0" index="0" speed="13.90" length="86.40" shape="-100.00,-8.00 -13.60,-8.00"/>
        <lane id="B0_1" index="1" speed="13.90" length="86.40" shape="-100.00,-4.80 -13.60,-4.80"/>
        <lane id="B0_2" index="2" speed="13.90" length="86.40" shape="-100.00,-1.60 -13.60,-1.60"/>
    </edge>
    <edge id="B1" from="J" to="B" priority="-1">
        <lane id="B1_0" index="0" speed="13.90" length="86.40" shape="-13.60,8.00 -100.00,8.00"/>
        <lane id="B1_1" index="1" speed="13.90" length="86.40" shape="-13.60,4.80 -100.00,4.80"/>
        <lane id="B1_2" index="2" speed="13.90" length="86.40" shape="-13.60,1.60 -100.00,1.60"/>
    </edge>
    <edge id="C0" from="C" to="J" priority="-1">
        <lane id="C0_0" index="0" speed="13.90" length="86.40" shape="8.00,-100.00 8.00,-13.60"/>
        <lane id="C0_1" index="1" speed="13.90" length="86.40" shape="4.80,-100.00 4.80,-13.60"/>
        <lane id="C0_2" index="2" speed="13.90" length="86.40" shape="1.60,-100.00 1.60,-13.60"/>
    </edge>
    <edge id="C1" from="J" to="C" priority="-1">
        <lane id="C1_0" index="0" speed="13.90" length="86.40" shape="-8.00,-13.60 -8.00,-100.00"/>
        <lane id="C1_1" index="1" speed="13.90" length="86.40" shape="-4.80,-13.60 -4.80,-100.00"/>
        <lane id="C1_2" index="2" speed="13.90" length="86.40" shape="-1.60,-13.60 -1.60,-100.00"/>
    </edge>
    <edge id="D0" from="D" to="J" priority="-1">
        <lane id="D0_0" index="0" speed="13.90" length="86.40" shape="100.00,8.00 13.60,8.00"/>
        <lane id="D0_1" index="1" speed="13.90" length="86.40" shape="100.00,4.80 13.60,4.80"/>
        <lane id="D0_2" index="2" speed="13.90" length="86.40" shape="100.00,1.60 13.60,1.60"/>
    </edge>
    <edge id="D1" from="J" to="D" priority="-1">
        <lane id="D1_0" index="0" speed="13.90" length="86.40" shape="13.60,-8.00 100.00,-8.00"/>
        <lane id="D1_1" index="1" speed="13.90" length="86.40" shape="13.60,-4.80 100.00,-4.80"/>
        <lane id="D1_2" index="2" speed="13.90" length="86.40" shape="13.60,-1.60 100.00,-1.60"/>
    </edge>

    <tlLogic id="J" type="static" programID="0" offset="0">
        <phase duration="15" state="GGGrrrrrrrrr"/>
        <phase duration="3"  state="yyyrrrrrrrrr"/>
        <phase duration="2"  state="rrrrrrrrrrrr"/>
        <phase duration="15" state="rrrGGGrrrrrr"/>
        <phase duration="3"  state="rrryyyrrrrrr"/>
        <phase duration="2"  state="rrrrrrrrrrrr"/>
        <phase duration="15" state="rrrrrrGGGrrr"/>
        <phase duration="3"  state="rrrrrryyyrrr"/>
        <phase duration="2"  state="rrrrrrrrrrrr"/>
        <phase duration="15" state="rrrrrrrrrGGG"/>
        <phase duration="3"  state="rrrrrrrrryyy"/>
        <phase duration="2"  state="rrrrrrrrrrrr"/>
    </tlLogic>

    <junction id="A" type="dead_end" x="0.00" y="100.00" incLanes="A1_0 A1_1 A1_2" intLanes="" shape="0.00,100.00 9.60,100.00 0.00,100.00"/>
    <junction id="B" type="dead_end" x="-100.00" y="0.00" incLanes="B1_0 B1_1 B1_2" intLanes="" shape="-100.00,0.00 -100.00,9.60 -100.00,0.00"/>
    <junction id="C" type="dead_end" x="0.00" y="-100.00" incLanes="C1_0 C1_1 C1_2" intLanes="" shape="0.00,-100.00 -9.60,-100.00 0.00,-100.00"/>
    <junction id="D" type="dead_end" x="100.00" y="0.00" incLanes="D1_0 D1_1 D1_2" intLanes="" shape="100.00,0.00 100.00,-9.60 100.00,0.00"/>
    <junction id="J" type="traffic_light" x="0.00" y="0.00" incLanes="A0_0 A0_1 A0_2 D0_0 D0_1 D0_2 C0_0 C0_1 C0_2 B0_0 B0_1 B0_2" intLanes=":J_0_0 :J_1_0 :J_2_0 :J_3_0 :J_4_0 :J_5_0 :J_6_0 :J_7_0 :J_8_0 :J_9_0 :J_10_0 :J_11_0" shape="-9.60,13.60 9.60,13.60 10.04,11.38 10.60,10.60 11.38,10.04 12.38,9.71 13.60,9.60 13.60,-9.60 11.38,-10.04 10.60,-10.60 10.04,-11.38 9.71,-12.38 9.60,-13.60 -9.60,-13.60 -10.04,-11.38 -10.60,-10.60 -11.38,-10.04 -12.38,-9.71 -13.60,-9.60 -13.60,9.60 -11.38,10.04 -10.60,10.60 -10.04,11.38 -9.71,12.38">
        <request index="0"  response="000000000000" foes="000000000000" cont="0"/>
        <request index="1"  response="000000000000" foes="110100010000" cont="0"/>
        <request index="2"  response="000010000000" foes="100010110000" cont="0"/>
        <request index="3"  response="000000000000" foes="000000000000" cont="0"/>
        <request index="4"  response="000010000110" foes="100010000110" cont="0"/>
        <request index="5"  response="010110000100" foes="010110000100" cont="0"/>
        <request index="6"  response="000000000000" foes="000000000000" cont="0"/>
        <request index="7"  response="000000000000" foes="010000110100" cont="0"/>
        <request index="8"  response="000000000010" foes="110000100010" cont="0"/>
        <request index="9"  response="000000000000" foes="000000000000" cont="0"/>
        <request index="10" response="000110000010" foes="000110100010" cont="0"/>
        <request index="11" response="000100010110" foes="000100010110" cont="0"/>
    </junction>

    <connection from="A0" to="B1" fromLane="0" toLane="0" via=":J_0_0" tl="J" linkIndex="0" dir="r" state="O"/>
    <connection from="A0" to="C1" fromLane="1" toLane="1" via=":J_1_0" tl="J" linkIndex="1" dir="s" state="O"/>
    <connection from="A0" to="D1" fromLane="2" toLane="2" via=":J_2_0" tl="J" linkIndex="2" dir="l" state="o"/>
    <connection from="B0" to="C1" fromLane="0" toLane="0" via=":J_9_0" tl="J" linkIndex="9" dir="r" state="O"/>
    <connection from="B0" to="D1" fromLane="1" toLane="1" via=":J_10_0" tl="J" linkIndex="10" dir="s" state="o"/>
    <connection from="B0" to="A1" fromLane="2" toLane="2" via=":J_11_0" tl="J" linkIndex="11" dir="l" state="o"/>
    <connection from="C0" to="D1" fromLane="0" toLane="0" via=":J_6_0" tl="J" linkIndex="6" dir="r" state="O"/>
    <connection from="C0" to="A1" fromLane="1" toLane="1" via=":J_7_0" tl="J" linkIndex="7" dir="s" state="O"/>
    <connection from="C0" to="B1" fromLane="2" toLane="2" via=":J_8_0" tl="J" linkIndex="8" dir="l" state="o"/>
    <connection from="D0" to="A1" fromLane="0" toLane="0" via=":J_3_0" tl="J" linkIndex="3" dir="r" state="O"/>
    <connection from="D0" to="B1" fromLane="1" toLane="1" via=":J_4_0" tl="J" linkIndex="4" dir="s" state="o"/>
    <connection from="D0" to="C1" fromLane="2" toLane="2" via=":J_5_0" tl="J" linkIndex="5" dir="l" state="o"/>

    <connection from=":J_0" to="B1" fromLane="0" toLane="0" dir="r" state="M"/>
    <connection from=":J_1" to="C1" fromLane="0" toLane="1" dir="s" state="M"/>
    <connection from=":J_2" to="D1" fromLane="0" toLane="2" dir="l" state="M"/>
    <connection from=":J_3" to="A1" fromLane="0" toLane="0" dir="r" state="M"/>
    <connection from=":J_4" to="B1" fromLane="0" toLane="1" dir="s" state="M"/>
    <connection from=":J_5" to="C1" fromLane="0" toLane="2" dir="l" state="M"/>
    <connection from=":J_6" to="D1" fromLane="0" toLane="0" dir="r" state="M"/>
    <connection from=":J_7" to="A1" fromLane="0" toLane="1" dir="s" state="M"/>
    <connection from=":J_8" to="B1" fromLane="0" toLane="2" dir="l" state="M"/>
    <connection from=":J_9" to="C1" fromLane="0" toLane="0" dir="r" state="M"/>
    <connection from=":J_10" to="D1" fromLane="0" toLane="1" dir="s" state="M"/>
    <connection from=":J_11" to="A1" fromLane="0" toLane="2" dir="l" state="M"/>

</net>
