<nodes>
    <!-- Four entry points -->
    <node id="A" x="0" y="100" type="priority"/>
    <node id="B" x="-100" y="0" type="priority"/>
    <node id="C" x="0" y="-100" type="priority"/>
    <node id="D" x="100" y="0" type="priority"/>

    <!-- Central intersection (traffic light) -->
    <node id="J" x="0" y="0" type="traffic_light"/>
</nodes>
