<?xml version="1.0" ?>
<routes>
    <vType accel="2.5" decel="4.5" sigma="0.8" length="4.0" maxSpeed="12.2" color="0,0,1" id="car_122_blue"/>
    <vType accel="1.5" decel="3.5" sigma="0.3" length="12.0" maxSpeed="14.3" color="0,0,1" id="bus_143_blue"/>
    <vType accel="2.5" decel="4.5" sigma="0.8" length="4.0" maxSpeed="23.0" color="1,1,0" id="car_230_yellow"/>
    <vType accel="2.5" decel="4.5" sigma="0.8" length="4.0" maxSpeed="13.5" color="0,0,1" id="car_135_blue"/>
    <vType accel="2.5" decel="4.5" sigma="0.8" length="4.0" maxSpeed="20.9" color="1,0.5,0" id="car_209_orange"/>
    <vType accel="1.2" decel="3.0" sigma="0.2" length="8.0" maxSpeed="18.0" color="1,1,1" id="truck_180_white"/>
    <vType accel="2.5" decel="4.5" sigma="0.8" length="4.0" maxSpeed="16.4" color="0,1,0" id="car_164_green"/>
    <vType accel="1.5" decel="3.5" sigma="0.3" length="12.0" maxSpeed="20.1" color="0,0,1" id="bus_201_blue"/>
    <vType accel="2.5" decel="4.5" sigma="0.8" length="4.0" maxSpeed="21.4" color="0,0,1" id="car_214_blue"/>
    <vType accel="2.5" decel="4.5" sigma="0.8" length="4.0" maxSpeed="19.7" color="1,1,1" id="car_197_white"/>
    <vType accel="2.5" decel="4.5" sigma="0.8" length="4.0" maxSpeed="12.8" color="0,0,1" id="car_128_blue"/>
    <vType accel="1.2" decel="3.0" sigma="0.2" length="8.0" maxSpeed="22.3" color="1,1,1" id="truck_223_white"/>
    <vType accel="2.5" decel="4.5" sigma="0.8" length="4.0" maxSpeed="20.2" color="0,1,0" id="car_202_green"/>
    <vType accel="1.5" decel="3.5" sigma="0.3" length="12.0" maxSpeed="20.3" color="0,0,0" id="bus_203_black"/>
    <vType accel="2.5" decel="4.5" sigma="0.8" length="4.0" maxSpeed="24.3" color="0,0,0" id="car_243_black"/>
    <vType accel="2.5" decel="4.5" sigma="0.8" length="4.0" maxSpeed="12.6" color="0,1,0" id="car_126_green"/>
    <vType accel="1.5" decel="3.5" sigma="0.3" length="12.0" maxSpeed="22.1" color="0,0,1" id="bus_221_blue"/>
    <vType accel="1.2" decel="3.0" sigma="0.2" length="8.0" maxSpeed="25.0" color="1,0,0" id="truck_250_red"/>
    <vType accel="1.5" decel="3.5" sigma="0.3" length="12.0" maxSpeed="12.5" color="0,0,0" id="bus_125_black"/>
    <vType accel="1.5" decel="3.5" sigma="0.3" length="12.0" maxSpeed="14.1" color="0,0,0" id="bus_141_black"/>
    <vType accel="1.5" decel="3.5" sigma="0.3" length="12.0" maxSpeed="11.4" color="1,1,0" id="bus_114_yellow"/>
    <vType accel="1.5" decel="3.5" sigma="0.3" length="12.0" maxSpeed="20.2" color="0,0,1" id="bus_202_blue"/>
    <vType accel="1.2" decel="3.0" sigma="0.2" length="8.0" maxSpeed="20.5" color="0,0,1" id="truck_205_blue"/>
    <vType accel="2.5" decel="4.5" sigma="0.8" length="4.0" maxSpeed="23.2" color="1,0,0" id="car_232_red"/>
    <vType accel="1.2" decel="3.0" sigma="0.2" length="8.0" maxSpeed="15.7" color="0,0,0" id="truck_157_black"/>
    <vType accel="1.5" decel="3.5" sigma="0.3" length="12.0" maxSpeed="18.6" color="1,0.5,0" id="bus_186_orange"/>
    <vType accel="1.2" decel="3.0" sigma="0.2" length="8.0" maxSpeed="12.4" color="1,0.5,0" id="truck_124_orange"/>
    <vType accel="1.5" decel="3.5" sigma="0.3" length="12.0" maxSpeed="13.5" color="1,0.5,0" id="bus_135_orange"/>
    <vType accel="1.2" decel="3.0" sigma="0.2" length="8.0" maxSpeed="12.7" color="1,1,0" id="truck_127_yellow"/>
    <vType accel="1.2" decel="3.0" sigma="0.2" length="8.0" maxSpeed="11.7" color="1,1,0" id="truck_117_yellow"/>
    <vType accel="2.5" decel="4.5" sigma="0.8" length="4.0" maxSpeed="11.3" color="1,0,0" id="car_113_red"/>
    <vType accel="2.5" decel="4.5" sigma="0.8" length="4.0" maxSpeed="12.3" color="0,0,1" id="car_123_blue"/>
    <vType accel="1.5" decel="3.5" sigma="0.3" length="12.0" maxSpeed="19.4" color="1,0.5,0" id="bus_194_orange"/>
    <vType accel="2.5" decel="4.5" sigma="0.8" length="4.0" maxSpeed="19.0" color="1,0.5,0" id="car_190_orange"/>
    <vType accel="1.5" decel="3.5" sigma="0.3" length="12.0" maxSpeed="13.5" color="1,0,0" id="bus_135_red"/>
    <vType accel="1.5" decel="3.5" sigma="0.3" length="12.0" maxSpeed="22.7" color="0,0,0" id="bus_227_black"/>
    <vType accel="1.2" decel="3.0" sigma="0.2" length="8.0" maxSpeed="14.1" color="1,0,0" id="truck_141_red"/>
    <vType accel="1.2" decel="3.0" sigma="0.2" length="8.0" maxSpeed="21.4" color="0,0,0" id="truck_214_black"/>
    <vType accel="1.2" decel="3.0" sigma="0.2" length="8.0" maxSpeed="18.4" color="0,0,1" id="truck_184_blue"/>
    <vType accel="1.2" decel="3.0" sigma="0.2" length="8.0" maxSpeed="10.1" color="1,0.5,0" id="truck_101_orange"/>
    <vType accel="1.2" decel="3.0" sigma="0.2" length="8.0" maxSpeed="24.1" color="1,0,0" id="truck_241_red"/>
    <vType accel="1.5" decel="3.5" sigma="0.3" length="12.0" maxSpeed="11.6" color="1,0,0" id="bus_116_red"/>
    <vType accel="1.2" decel="3.0" sigma="0.2" length="8.0" maxSpeed="11.1" color="1,1,0" id="truck_111_yellow"/>
    <vType accel="2.5" decel="4.5" sigma="0.8" length="4.0" maxSpeed="14.4" color="1,0,0" id="car_144_red"/>
    <vType accel="1.5" decel="3.5" sigma="0.3" length="12.0" maxSpeed="17.1" color="1,1,1" id="bus_171_white"/>
    <vType accel="1.2" decel="3.0" sigma="0.2" length="8.0" maxSpeed="24.2" color="0,0,0" id="truck_242_black"/>
    <vType accel="1.2" decel="3.0" sigma="0.2" length="8.0" maxSpeed="19.2" color="1,0,0" id="truck_192_red"/>
    <vType accel="1.5" decel="3.5" sigma="0.3" length="12.0" maxSpeed="14.8" color="1,1,0" id="bus_148_yellow"/>
    <vType accel="1.2" decel="3.0" sigma="0.2" length="8.0" maxSpeed="22.8" color="1,1,0" id="truck_228_yellow"/>
    <vType accel="1.5" decel="3.5" sigma="0.3" length="12.0" maxSpeed="12.6" color="1,1,1" id="bus_126_white"/>
    <vType accel="1.2" decel="3.0" sigma="0.2" length="8.0" maxSpeed="14.4" color="1,0.5,0" id="truck_144_orange"/>
    <vType accel="2.5" decel="4.5" sigma="0.8" length="4.0" maxSpeed="24.9" color="1,1,1" id="car_249_white"/>
    <vType accel="1.5" decel="3.5" sigma="0.3" length="12.0" maxSpeed="10.7" color="1,0.5,0" id="bus_107_orange"/>
    <vType accel="2.5" decel="4.5" sigma="0.8" length="4.0" maxSpeed="11.9" color="1,1,1" id="car_119_white"/>
    <vType accel="1.2" decel="3.0" sigma="0.2" length="8.0" maxSpeed="10.9" color="0,1,0" id="truck_109_green"/>
    <vType accel="2.5" decel="4.5" sigma="0.8" length="4.0" maxSpeed="10.5" color="0,1,0" id="car_105_green"/>
    <vType accel="1.5" decel="3.5" sigma="0.3" length="12.0" maxSpeed="16.9" color="0,0,1" id="bus_169_blue"/>
    <vType accel="1.2" decel="3.0" sigma="0.2" length="8.0" maxSpeed="14.8" color="1,0,0" id="truck_148_red"/>
    <vType accel="1.2" decel="3.0" sigma="0.2" length="8.0" maxSpeed="21.3" color="0,0,0" id="truck_213_black"/>
    <vType accel="1.5" decel="3.5" sigma="0.3" length="12.0" maxSpeed="18.2" color="0,0,0" id="bus_182_black"/>
    <vType accel="2.5" decel="4.5" sigma="0.8" length="4.0" maxSpeed="23.1" color="0,0,1" id="car_231_blue"/>
    <vType accel="1.2" decel="3.0" sigma="0.2" length="8.0" maxSpeed="24.9" color="1,0.5,0" id="truck_249_orange"/>
    <vType accel="2.5" decel="4.5" sigma="0.8" length="4.0" maxSpeed="22.1" color="1,1,1" id="car_221_white"/>
    <vType accel="1.2" decel="3.0" sigma="0.2" length="8.0" maxSpeed="21.7" color="0,1,0" id="truck_217_green"/>
    <vType accel="1.2" decel="3.0" sigma="0.2" length="8.0" maxSpeed="22.2" color="1,0,0" id="truck_222_red"/>
    <vType accel="1.5" decel="3.5" sigma="0.3" length="12.0" maxSpeed="19.8" color="1,1,1" id="bus_198_white"/>
    <vType accel="2.5" decel="4.5" sigma="0.8" length="4.0" maxSpeed="20.7" color="0,0,1" id="car_207_blue"/>
    <vType accel="1.2" decel="3.0" sigma="0.2" length="8.0" maxSpeed="19.8" color="1,1,0" id="truck_198_yellow"/>
    <vType accel="2.5" decel="4.5" sigma="0.8" length="4.0" maxSpeed="11.1" color="0,0,1" id="car_111_blue"/>
    <vType accel="1.5" decel="3.5" sigma="0.3" length="12.0" maxSpeed="23.0" color="0,0,0" id="bus_230_black"/>
    <vType accel="1.5" decel="3.5" sigma="0.3" length="12.0" maxSpeed="17.8" color="1,1,1" id="bus_178_white"/>
    <vType accel="1.2" decel="3.0" sigma="0.2" length="8.0" maxSpeed="24.7" color="1,0.5,0" id="truck_247_orange"/>
    <vType accel="1.2" decel="3.0" sigma="0.2" length="8.0" maxSpeed="11.4" color="0,1,0" id="truck_114_green"/>
    <vType accel="1.5" decel="3.5" sigma="0.3" length="12.0" maxSpeed="19.2" color="1,0.5,0" id="bus_192_orange"/>
    <vType accel="1.2" decel="3.0" sigma="0.2" length="8.0" maxSpeed="18.4" color="1,1,0" id="truck_184_yellow"/>
    <vType accel="1.2" decel="3.0" sigma="0.2" length="8.0" maxSpeed="12.3" color="0,0,0" id="truck_123_black"/>
    <vType accel="1.2" decel="3.0" sigma="0.2" length="8.0" maxSpeed="14.0" color="1,1,1" id="truck_140_white"/>
    <vType accel="1.5" decel="3.5" sigma="0.3" length="12.0" maxSpeed="22.6" color="0,1,0" id="bus_226_green"/>
    <vType accel="2.5" decel="4.5" sigma="0.8" length="4.0" maxSpeed="16.2" color="1,1,0" id="car_162_yellow"/>
    <vType accel="1.5" decel="3.5" sigma="0.3" length="12.0" maxSpeed="24.0" color="1,0,0" id="bus_240_red"/>
    <vType accel="1.5" decel="3.5" sigma="0.3" length="12.0" maxSpeed="18.7" color="0,0,0" id="bus_187_black"/>
    <vType accel="1.2" decel="3.0" sigma="0.2" length="8.0" maxSpeed="15.0" color="1,0.5,0" id="truck_150_orange"/>
    <vType accel="1.2" decel="3.0" sigma="0.2" length="8.0" maxSpeed="13.5" color="0,1,0" id="truck_135_green"/>
    <vType accel="1.5" decel="3.5" sigma="0.3" length="12.0" maxSpeed="19.3" color="0,1,0" id="bus_193_green"/>
    <vType accel="1.2" decel="3.0" sigma="0.2" length="8.0" maxSpeed="14.6" color="0,0,1" id="truck_146_blue"/>
    <vType accel="2.5" decel="4.5" sigma="0.8" length="4.0" maxSpeed="22.7" color="1,0.5,0" id="car_227_orange"/>
    <vType accel="2.5" decel="4.5" sigma="0.8" length="4.0" maxSpeed="15.2" color="1,0.5,0" id="car_152_orange"/>
    <vType accel="1.5" decel="3.5" sigma="0.3" length="12.0" maxSpeed="20.8" color="0,0,0" id="bus_208_black"/>
    <vType accel="1.2" decel="3.0" sigma="0.2" length="8.0" maxSpeed="14.2" color="1,0.5,0" id="truck_142_orange"/>
    <vType accel="2.5" decel="4.5" sigma="0.8" length="4.0" maxSpeed="10.8" color="1,0,0" id="car_108_red"/>
    <vType accel="1.2" decel="3.0" sigma="0.2" length="8.0" maxSpeed="17.3" color="0,0,1" id="truck_173_blue"/>
    <vType accel="2.5" decel="4.5" sigma="0.8" length="4.0" maxSpeed="24.6" color="0,0,0" id="car_246_black"/>
    <vType accel="1.5" decel="3.5" sigma="0.3" length="12.0" maxSpeed="17.4" color="1,1,1" id="bus_174_white"/>
    <vType accel="2.5" decel="4.5" sigma="0.8" length="4.0" maxSpeed="15.4" color="1,0.5,0" id="car_154_orange"/>
    <vType accel="2.5" decel="4.5" sigma="0.8" length="4.0" maxSpeed="20.2" color="1,1,0" id="car_202_yellow"/>
    <vType accel="1.2" decel="3.0" sigma="0.2" length="8.0" maxSpeed="19.3" color="0,0,1" id="truck_193_blue"/>
    <vType accel="1.2" decel="3.0" sigma="0.2" length="8.0" maxSpeed="12.3" color="1,1,0" id="truck_123_yellow"/>
    <vType accel="2.5" decel="4.5" sigma="0.8" length="4.0" maxSpeed="18.7" color="1,1,1" id="car_187_white"/>
    <vType accel="2.5" decel="4.5" sigma="0.8" length="4.0" maxSpeed="21.3" color="0,0,0" id="car_213_black"/>
    <vType accel="1.5" decel="3.5" sigma="0.3" length="12.0" maxSpeed="12.4" color="0,0,1" id="bus_124_blue"/>
    <vType accel="1.5" decel="3.5" sigma="0.3" length="12.0" maxSpeed="14.7" color="1,1,0" id="bus_147_yellow"/>
    <vType accel="1.5" decel="3.5" sigma="0.3" length="12.0" maxSpeed="10.6" color="1,0,0" id="bus_106_red"/>
    <vType accel="1.2" decel="3.0" sigma="0.2" length="8.0" maxSpeed="17.5" color="1,0,0" id="truck_175_red"/>
    <vType accel="1.2" decel="3.0" sigma="0.2" length="8.0" maxSpeed="15.8" color="0,0,0" id="truck_158_black"/>
    <vType accel="1.5" decel="3.5" sigma="0.3" length="12.0" maxSpeed="10.6" color="0,1,0" id="bus_106_green"/>
    <vType accel="1.2" decel="3.0" sigma="0.2" length="8.0" maxSpeed="23.3" color="1,1,0" id="truck_233_yellow"/>
    <vType accel="2.5" decel="4.5" sigma="0.8" length="4.0" maxSpeed="18.8" color="1,0,0" id="car_188_red"/>
    <vType accel="1.5" decel="3.5" sigma="0.3" length="12.0" maxSpeed="24.5" color="1,0.5,0" id="bus_245_orange"/>
    <vType accel="1.2" decel="3.0" sigma="0.2" length="8.0" maxSpeed="19.9" color="1,0.5,0" id="truck_199_orange"/>
    <vType accel="1.2" decel="3.0" sigma="0.2" length="8.0" maxSpeed="14.1" color="1,1,1" id="truck_141_white"/>
    <vType accel="1.2" decel="3.0" sigma="0.2" length="8.0" maxSpeed="14.1" color="0,0,1" id="truck_141_blue"/>
    <vType accel="1.2" decel="3.0" sigma="0.2" length="8.0" maxSpeed="18.4" color="0,1,0" id="truck_184_green"/>
    <vType accel="1.5" decel="3.5" sigma="0.3" length="12.0" maxSpeed="15.2" color="0,1,0" id="bus_152_green"/>
    <vType accel="2.5" decel="4.5" sigma="0.8" length="4.0" maxSpeed="17.3" color="1,1,0" id="car_173_yellow"/>
    <vType accel="1.2" decel="3.0" sigma="0.2" length="8.0" maxSpeed="21.0" color="1,1,0" id="truck_210_yellow"/>
    <vType accel="1.5" decel="3.5" sigma="0.3" length="12.0" maxSpeed="21.2" color="0,0,0" id="bus_212_black"/>
    <vType accel="1.5" decel="3.5" sigma="0.3" length="12.0" maxSpeed="16.3" color="0,0,1" id="bus_163_blue"/>
    <vType accel="1.2" decel="3.0" sigma="0.2" length="8.0" maxSpeed="16.4" color="0,0,1" id="truck_164_blue"/>
    <vType accel="1.5" decel="3.5" sigma="0.3" length="12.0" maxSpeed="24.2" color="1,1,1" id="bus_242_white"/>
    <vType accel="1.5" decel="3.5" sigma="0.3" length="12.0" maxSpeed="10.2" color="0,0,0" id="bus_102_black"/>
    <vType accel="1.2" decel="3.0" sigma="0.2" length="8.0" maxSpeed="15.9" color="1,1,0" id="truck_159_yellow"/>
    <vType accel="1.2" decel="3.0" sigma="0.2" length="8.0" maxSpeed="19.7" color="0,0,0" id="truck_197_black"/>
    <vType accel="1.5" decel="3.5" sigma="0.3" length="12.0" maxSpeed="20.0" color="1,1,0" id="bus_200_yellow"/>
    <vType accel="2.5" decel="4.5" sigma="0.8" length="4.0" maxSpeed="18.1" color="1,0,0" id="car_181_red"/>
    <vType accel="1.5" decel="3.5" sigma="0.3" length="12.0" maxSpeed="21.2" color="0,0,1" id="bus_212_blue"/>
    <vType accel="1.5" decel="3.5" sigma="0.3" length="12.0" maxSpeed="13.2" color="1,1,0" id="bus_132_yellow"/>
    <vType accel="2.5" decel="4.5" sigma="0.8" length="4.0" maxSpeed="21.2" color="1,1,0" id="car_212_yellow"/>
    <vType accel="1.2" decel="3.0" sigma="0.2" length="8.0" maxSpeed="15.1" color="0,1,0" id="truck_151_green"/>
    <vType accel="2.5" decel="4.5" sigma="0.8" length="4.0" maxSpeed="10.6" color="0,1,0" id="car_106_green"/>
    <vType accel="2.5" decel="4.5" sigma="0.8" length="4.0" maxSpeed="18.6" color="1,1,1" id="car_186_white"/>
    <vType accel="1.2" decel="3.0" sigma="0.2" length="8.0" maxSpeed="17.7" color="1,1,1" id="truck_177_white"/>
    <vType accel="1.5" decel="3.5" sigma="0.3" length="12.0" maxSpeed="21.9" color="1,1,1" id="bus_219_white"/>
    <vType accel="2.5" decel="4.5" sigma="0.8" length="4.0" maxSpeed="10.5" color="1,1,0" id="car_105_yellow"/>
    <vType accel="1.2" decel="3.0" sigma="0.2" length="8.0" maxSpeed="12.7" color="1,0,0" id="truck_127_red"/>
    <vType accel="2.5" decel="4.5" sigma="0.8" length="4.0" maxSpeed="10.0" color="0,0,0" id="car_100_black"/>
    <vType accel="1.5" decel="3.5" sigma="0.3" length="12.0" maxSpeed="13.2" color="1,1,1" id="bus_132_white"/>
    <vType accel="2.5" decel="4.5" sigma="0.8" length="4.0" maxSpeed="11.5" color="1,0.5,0" id="car_115_orange"/>
    <vType accel="1.2" decel="3.0" sigma="0.2" length="8.0" maxSpeed="14.2" color="1,1,0" id="truck_142_yellow"/>
    <vType accel="1.2" decel="3.0" sigma="0.2" length="8.0" maxSpeed="15.7" color="0,0,1" id="truck_157_blue"/>
    <vType accel="1.2" decel="3.0" sigma="0.2" length="8.0" maxSpeed="15.3" color="0,0,0" id="truck_153_black"/>
    <vType accel="1.5" decel="3.5" sigma="0.3" length="12.0" maxSpeed="20.5" color="0,1,0" id="bus_205_green"/>
    <vType accel="2.5" decel="4.5" sigma="0.8" length="4.0" maxSpeed="21.1" color="1,1,1" id="car_211_white"/>
    <vType accel="1.5" decel="3.5" sigma="0.3" length="12.0" maxSpeed="23.2" color="1,1,0" id="bus_232_yellow"/>
    <vType accel="2.5" decel="4.5" sigma="0.8" length="4.0" maxSpeed="19.5" color="1,1,0" id="car_195_yellow"/>
    <vType accel="1.2" decel="3.0" sigma="0.2" length="8.0" maxSpeed="17.0" color="1,0,0" id="truck_170_red"/>
    <vType accel="2.5" decel="4.5" sigma="0.8" length="4.0" maxSpeed="23.1" color="0,1,0" id="car_231_green"/>
    <route id="west_to_east" edges="B0 D1"/>
    <route id="south_to_north" edges="C0 A1"/>
    <route id="north_to_south" edges="A0 C1"/>
    <route id="east_to_west" edges="D0 B1"/>
    <vehicle id="car_064" type="car_122_blue" route="west_to_east" depart="0"/>
    <vehicle id="car_116" type="bus_143_blue" route="west_to_east" depart="4"/>
    <vehicle id="car_110" type="car_230_yellow" route="south_to_north" depart="5"/>
    <vehicle id="car_126" type="car_135_blue" route="west_to_east" depart="7"/>
    <vehicle id="car_109" type="car_209_orange" route="south_to_north" depart="8"/>
    <vehicle id="car_135" type="truck_180_white" route="north_to_south" depart="9"/>
    <vehicle id="car_141" type="car_164_green" route="south_to_north" depart="9"/>
    <vehicle id="car_120" type="bus_201_blue" route="east_to_west" depart="13"/>
    <vehicle id="car_119" type="car_214_blue" route="west_to_east" depart="17"/>
    <vehicle id="car_103" type="car_197_white" route="north_to_south" depart="18"/>
    <vehicle id="car_025" type="car_128_blue" route="south_to_north" depart="19"/>
    <vehicle id="car_129" type="truck_223_white" route="south_to_north" depart="20"/>
    <vehicle id="car_100" type="car_202_green" route="north_to_south" depart="21"/>
    <vehicle id="car_046" type="bus_203_black" route="south_to_north" depart="22"/>
    <vehicle id="car_075" type="car_243_black" route="west_to_east" depart="24"/>
    <vehicle id="car_010" type="car_126_green" route="east_to_west" depart="24"/>
    <vehicle id="car_029" type="bus_221_blue" route="south_to_north" depart="26"/>
    <vehicle id="car_017" type="truck_250_red" route="west_to_east" depart="29"/>
    <vehicle id="car_136" type="bus_125_black" route="north_to_south" depart="32"/>
    <vehicle id="car_005" type="bus_141_black" route="south_to_north" depart="35"/>
    <vehicle id="car_061" type="bus_114_yellow" route="west_to_east" depart="36"/>
    <vehicle id="car_111" type="bus_202_blue" route="west_to_east" depart="37"/>
    <vehicle id="car_146" type="truck_205_blue" route="south_to_north" depart="42"/>
    <vehicle id="car_024" type="car_232_red" route="south_to_north" depart="44"/>
    <vehicle id="car_039" type="truck_157_black" route="south_to_north" depart="46"/>
    <vehicle id="car_069" type="bus_186_orange" route="north_to_south" depart="48"/>
    <vehicle id="car_056" type="truck_124_orange" route="east_to_west" depart="49"/>
    <vehicle id="car_065" type="bus_135_orange" route="north_to_south" depart="49"/>
    <vehicle id="car_124" type="truck_127_yellow" route="south_to_north" depart="49"/>
    <vehicle id="car_143" type="truck_117_yellow" route="west_to_east" depart="50"/>
    <vehicle id="car_081" type="car_113_red" route="south_to_north" depart="51"/>
    <vehicle id="car_049" type="car_123_blue" route="north_to_south" depart="53"/>
    <vehicle id="car_035" type="bus_194_orange" route="east_to_west" depart="53"/>
    <vehicle id="car_112" type="car_190_orange" route="west_to_east" depart="54"/>
    <vehicle id="car_083" type="bus_135_red" route="east_to_west" depart="55"/>
    <vehicle id="car_094" type="bus_227_black" route="north_to_south" depart="55"/>
    <vehicle id="car_099" type="truck_141_red" route="north_to_south" depart="58"/>
    <vehicle id="car_084" type="truck_214_black" route="north_to_south" depart="59"/>
    <vehicle id="car_060" type="truck_184_blue" route="south_to_north" depart="63"/>
    <vehicle id="car_053" type="truck_101_orange" route="north_to_south" depart="63"/>
    <vehicle id="car_090" type="truck_241_red" route="north_to_south" depart="67"/>
    <vehicle id="car_048" type="bus_116_red" route="west_to_east" depart="71"/>
    <vehicle id="car_108" type="truck_111_yellow" route="west_to_east" depart="80"/>
    <vehicle id="car_101" type="car_144_red" route="east_to_west" depart="82"/>
    <vehicle id="car_012" type="bus_171_white" route="east_to_west" depart="84"/>
    <vehicle id="car_131" type="truck_242_black" route="east_to_west" depart="84"/>
    <vehicle id="car_016" type="truck_192_red" route="east_to_west" depart="84"/>
    <vehicle id="car_076" type="bus_148_yellow" route="west_to_east" depart="85"/>
    <vehicle id="car_115" type="truck_228_yellow" route="south_to_north" depart="86"/>
    <vehicle id="car_139" type="bus_126_white" route="south_to_north" depart="89"/>
    <vehicle id="car_121" type="truck_144_orange" route="south_to_north" depart="96"/>
    <vehicle id="car_113" type="car_249_white" route="south_to_north" depart="102"/>
    <vehicle id="car_063" type="bus_107_orange" route="north_to_south" depart="103"/>
    <vehicle id="car_142" type="car_119_white" route="east_to_west" depart="105"/>
    <vehicle id="car_067" type="truck_109_green" route="south_to_north" depart="108"/>
    <vehicle id="car_128" type="car_105_green" route="north_to_south" depart="112"/>
    <vehicle id="car_037" type="bus_169_blue" route="north_to_south" depart="116"/>
    <vehicle id="car_023" type="truck_148_red" route="west_to_east" depart="116"/>
    <vehicle id="car_015" type="truck_213_black" route="east_to_west" depart="120"/>
    <vehicle id="car_021" type="bus_182_black" route="south_to_north" depart="123"/>
    <vehicle id="car_026" type="car_231_blue" route="east_to_west" depart="127"/>
    <vehicle id="car_004" type="truck_249_orange" route="north_to_south" depart="128"/>
    <vehicle id="car_095" type="car_221_white" route="west_to_east" depart="128"/>
    <vehicle id="car_007" type="truck_217_green" route="north_to_south" depart="130"/>
    <vehicle id="car_059" type="truck_222_red" route="north_to_south" depart="131"/>
    <vehicle id="car_080" type="bus_198_white" route="east_to_west" depart="131"/>
    <vehicle id="car_085" type="car_207_blue" route="east_to_west" depart="132"/>
    <vehicle id="car_034" type="truck_198_yellow" route="south_to_north" depart="138"/>
    <vehicle id="car_006" type="car_111_blue" route="east_to_west" depart="139"/>
    <vehicle id="car_144" type="bus_230_black" route="north_to_south" depart="144"/>
    <vehicle id="car_105" type="bus_178_white" route="south_to_north" depart="145"/>
    <vehicle id="car_050" type="truck_247_orange" route="south_to_north" depart="146"/>
    <vehicle id="car_002" type="truck_114_green" route="west_to_east" depart="147"/>
    <vehicle id="car_028" type="bus_192_orange" route="south_to_north" depart="148"/>
    <vehicle id="car_133" type="truck_184_yellow" route="south_to_north" depart="153"/>
    <vehicle id="car_062" type="truck_123_black" route="north_to_south" depart="154"/>
    <vehicle id="car_132" type="truck_140_white" route="east_to_west" depart="155"/>
    <vehicle id="car_052" type="bus_226_green" route="east_to_west" depart="155"/>
    <vehicle id="car_107" type="car_128_blue" route="east_to_west" depart="156"/>
    <vehicle id="car_125" type="car_162_yellow" route="east_to_west" depart="157"/>
    <vehicle id="car_038" type="bus_240_red" route="north_to_south" depart="160"/>
    <vehicle id="car_044" type="bus_187_black" route="east_to_west" depart="161"/>
    <vehicle id="car_043" type="truck_150_orange" route="north_to_south" depart="161"/>
    <vehicle id="car_055" type="truck_135_green" route="south_to_north" depart="162"/>
    <vehicle id="car_106" type="bus_193_green" route="south_to_north" depart="170"/>
    <vehicle id="car_045" type="truck_146_blue" route="west_to_east" depart="174"/>
    <vehicle id="car_057" type="car_227_orange" route="south_to_north" depart="175"/>
    <vehicle id="car_013" type="car_152_orange" route="west_to_east" depart="178"/>
    <vehicle id="car_008" type="bus_208_black" route="east_to_west" depart="178"/>
    <vehicle id="car_027" type="truck_142_orange" route="west_to_east" depart="182"/>
    <vehicle id="car_031" type="car_108_red" route="north_to_south" depart="184"/>
    <vehicle id="car_091" type="truck_173_blue" route="north_to_south" depart="185"/>
    <vehicle id="car_089" type="car_246_black" route="east_to_west" depart="186"/>
    <vehicle id="car_011" type="bus_174_white" route="north_to_south" depart="189"/>
    <vehicle id="car_134" type="car_154_orange" route="south_to_north" depart="192"/>
    <vehicle id="car_058" type="car_202_yellow" route="east_to_west" depart="195"/>
    <vehicle id="car_041" type="truck_193_blue" route="west_to_east" depart="196"/>
    <vehicle id="car_088" type="truck_123_yellow" route="south_to_north" depart="199"/>
    <vehicle id="car_051" type="car_187_white" route="west_to_east" depart="200"/>
    <vehicle id="car_118" type="bus_187_black" route="east_to_west" depart="204"/>
    <vehicle id="car_130" type="car_213_black" route="south_to_north" depart="205"/>
    <vehicle id="car_145" type="bus_124_blue" route="south_to_north" depart="206"/>
    <vehicle id="car_127" type="bus_147_yellow" route="north_to_south" depart="206"/>
    <vehicle id="car_138" type="bus_106_red" route="east_to_west" depart="207"/>
    <vehicle id="car_070" type="truck_175_red" route="north_to_south" depart="211"/>
    <vehicle id="car_003" type="truck_158_black" route="west_to_east" depart="212"/>
    <vehicle id="car_114" type="bus_106_green" route="south_to_north" depart="217"/>
    <vehicle id="car_086" type="truck_233_yellow" route="west_to_east" depart="218"/>
    <vehicle id="car_009" type="car_188_red" route="west_to_east" depart="218"/>
    <vehicle id="car_014" type="bus_245_orange" route="north_to_south" depart="218"/>
    <vehicle id="car_042" type="truck_199_orange" route="east_to_west" depart="219"/>
    <vehicle id="car_019" type="truck_141_white" route="north_to_south" depart="219"/>
    <vehicle id="car_068" type="truck_141_blue" route="south_to_north" depart="219"/>
    <vehicle id="car_079" type="truck_184_green" route="west_to_east" depart="220"/>
    <vehicle id="car_093" type="bus_152_green" route="east_to_west" depart="222"/>
    <vehicle id="car_078" type="car_173_yellow" route="south_to_north" depart="225"/>
    <vehicle id="car_054" type="truck_210_yellow" route="west_to_east" depart="226"/>
    <vehicle id="car_096" type="bus_212_black" route="west_to_east" depart="226"/>
    <vehicle id="car_102" type="bus_163_blue" route="east_to_west" depart="228"/>
    <vehicle id="car_104" type="truck_164_blue" route="north_to_south" depart="228"/>
    <vehicle id="car_066" type="bus_242_white" route="west_to_east" depart="230"/>
    <vehicle id="car_018" type="bus_102_black" route="east_to_west" depart="231"/>
    <vehicle id="car_072" type="truck_159_yellow" route="west_to_east" depart="240"/>
    <vehicle id="car_149" type="truck_197_black" route="north_to_south" depart="241"/>
    <vehicle id="car_022" type="bus_200_yellow" route="west_to_east" depart="243"/>
    <vehicle id="car_030" type="truck_184_blue" route="north_to_south" depart="243"/>
    <vehicle id="car_092" type="car_181_red" route="north_to_south" depart="252"/>
    <vehicle id="car_032" type="bus_212_blue" route="north_to_south" depart="253"/>
    <vehicle id="car_122" type="bus_132_yellow" route="east_to_west" depart="253"/>
    <vehicle id="car_020" type="car_212_yellow" route="west_to_east" depart="262"/>
    <vehicle id="car_071" type="truck_151_green" route="west_to_east" depart="263"/>
    <vehicle id="car_137" type="car_106_green" route="west_to_east" depart="274"/>
    <vehicle id="car_077" type="car_186_white" route="west_to_east" depart="275"/>
    <vehicle id="car_033" type="truck_177_white" route="east_to_west" depart="276"/>
    <vehicle id="car_082" type="bus_219_white" route="west_to_east" depart="278"/>
    <vehicle id="car_098" type="car_105_yellow" route="west_to_east" depart="278"/>
    <vehicle id="car_001" type="truck_127_red" route="east_to_west" depart="279"/>
    <vehicle id="car_047" type="car_100_black" route="north_to_south" depart="279"/>
    <vehicle id="car_147" type="bus_132_white" route="west_to_east" depart="279"/>
    <vehicle id="car_140" type="car_115_orange" route="west_to_east" depart="281"/>
    <vehicle id="car_123" type="truck_142_yellow" route="north_to_south" depart="281"/>
    <vehicle id="car_040" type="bus_201_blue" route="north_to_south" depart="287"/>
    <vehicle id="car_117" type="truck_157_blue" route="north_to_south" depart="288"/>
    <vehicle id="car_087" type="truck_153_black" route="east_to_west" depart="289"/>
    <vehicle id="car_073" type="bus_205_green" route="south_to_north" depart="290"/>
    <vehicle id="car_150" type="car_211_white" route="south_to_north" depart="295"/>
    <vehicle id="car_148" type="bus_232_yellow" route="east_to_west" depart="296"/>
    <vehicle id="car_074" type="car_195_yellow" route="south_to_north" depart="299"/>
    <vehicle id="car_097" type="truck_170_red" route="south_to_north" depart="299"/>
    <vehicle id="car_036" type="car_231_green" route="east_to_west" depart="300"/>
</routes>
