<?xml version="1.0" ?>
<routes>
    <vType id="car_052_green" accel="2.5" decel="4.5" sigma="0.8" length="4.0" maxSpeed="5.3" color="0,1,0"/>
    <route id="west_to_east" edges="B0 D1"/>
    <vType id="motorcycle_073_black" accel="3.5" decel="5.0" sigma="0.6" length="2.0" maxSpeed="7.4" color="0,0,0"/>
    <route id="north_to_east" edges="A0 D1"/>
    <vType id="motorcycle_082_white" accel="3.5" decel="5.0" sigma="0.6" length="2.0" maxSpeed="8.3" color="1,1,1"/>
    <route id="north_to_south" edges="A0 C1"/>
    <vType id="autorickshaw_102_blue" accel="2.0" decel="4.0" sigma="0.7" length="3.0" maxSpeed="10.2" color="0,0,1"/>
    <vType id="motorcycle_086_black" accel="3.5" decel="5.0" sigma="0.6" length="2.0" maxSpeed="8.7" color="0,0,0"/>
    <vType id="car_065_red" accel="2.5" decel="4.5" sigma="0.8" length="4.0" maxSpeed="6.6" color="1,0,0"/>
    <route id="south_to_west" edges="C0 B1"/>
    <vType id="autorickshaw_082_white" accel="2.0" decel="4.0" sigma="0.7" length="3.0" maxSpeed="8.2" color="1,1,1"/>
    <route id="south_to_north" edges="C0 A1"/>
    <vType id="motorcycle_047_white" accel="3.5" decel="5.0" sigma="0.6" length="2.0" maxSpeed="4.8" color="1,1,1"/>
    <route id="north_to_west" edges="A0 B1"/>
    <vType id="motorcycle_038_blue" accel="3.5" decel="5.0" sigma="0.6" length="2.0" maxSpeed="3.8" color="0,0,1"/>
    <route id="east_to_south" edges="D0 C1"/>
    <vType id="autorickshaw_073_white" accel="2.0" decel="4.0" sigma="0.7" length="3.0" maxSpeed="7.4" color="1,1,1"/>
    <vType id="motorcycle_062_blue" accel="3.5" decel="5.0" sigma="0.6" length="2.0" maxSpeed="6.2" color="0,0,1"/>
    <route id="east_to_north" edges="D0 A1"/>
    <vType id="motorcycle_114_blue" accel="3.5" decel="5.0" sigma="0.6" length="2.0" maxSpeed="11.4" color="0,0,1"/>
    <route id="east_to_west" edges="D0 B1"/>
    <vType id="motorcycle_070_red" accel="3.5" decel="5.0" sigma="0.6" length="2.0" maxSpeed="7.0" color="1,0,0"/>
    <vType id="car_064_yellow" accel="2.5" decel="4.5" sigma="0.8" length="4.0" maxSpeed="6.5" color="1,1,0"/>
    <vType id="motorcycle_025_blue" accel="3.5" decel="5.0" sigma="0.6" length="2.0" maxSpeed="2.6" color="0,0,1"/>
    <vType id="motorcycle_087_black" accel="3.5" decel="5.0" sigma="0.6" length="2.0" maxSpeed="8.7" color="0,0,0"/>
    <vType id="car_070_yellow" accel="2.5" decel="4.5" sigma="0.8" length="4.0" maxSpeed="7.1" color="1,1,0"/>
    <vType id="motorcycle_079_blue" accel="3.5" decel="5.0" sigma="0.6" length="2.0" maxSpeed="8.0" color="0,0,1"/>
    <vType id="motorcycle_068_blue" accel="3.5" decel="5.0" sigma="0.6" length="2.0" maxSpeed="6.8" color="0,0,1"/>
    <vType id="motorcycle_070_blue" accel="3.5" decel="5.0" sigma="0.6" length="2.0" maxSpeed="7.0" color="0,0,1"/>
    <route id="west_to_south" edges="B0 C1"/>
    <vType id="bicycle_095_red" accel="1.0" decel="2.0" sigma="0.5" length="1.8" maxSpeed="9.6" color="1,0,0"/>
    <vType id="car_076_black" accel="2.5" decel="4.5" sigma="0.8" length="4.0" maxSpeed="7.6" color="0,0,0"/>
    <vType id="motorcycle_076_red" accel="3.5" decel="5.0" sigma="0.6" length="2.0" maxSpeed="7.6" color="1,0,0"/>
    <vType id="motorcycle_058_black" accel="3.5" decel="5.0" sigma="0.6" length="2.0" maxSpeed="5.9" color="0,0,0"/>
    <vType id="truck_087_white" accel="1.2" decel="3.0" sigma="0.2" length="8.0" maxSpeed="8.7" color="1,1,1"/>
    <vType id="motorcycle_068_red" accel="3.5" decel="5.0" sigma="0.6" length="2.0" maxSpeed="6.8" color="1,0,0"/>
    <vType id="motorcycle_082_red" accel="3.5" decel="5.0" sigma="0.6" length="2.0" maxSpeed="8.3" color="1,0,0"/>
    <vType id="motorcycle_075_black" accel="3.5" decel="5.0" sigma="0.6" length="2.0" maxSpeed="7.6" color="0,0,0"/>
    <vType id="autorickshaw_048_green" accel="2.0" decel="4.0" sigma="0.7" length="3.0" maxSpeed="4.8" color="0,1,0"/>
    <vType id="bicycle_080_blue" accel="1.0" decel="2.0" sigma="0.5" length="1.8" maxSpeed="8.1" color="0,0,1"/>
    <vType id="motorcycle_066_white" accel="3.5" decel="5.0" sigma="0.6" length="2.0" maxSpeed="6.7" color="1,1,1"/>
    <vType id="truck_065_orange" accel="1.2" decel="3.0" sigma="0.2" length="8.0" maxSpeed="6.5" color="1,0.5,0"/>
    <vType id="motorcycle_071_white" accel="3.5" decel="5.0" sigma="0.6" length="2.0" maxSpeed="7.1" color="1,1,1"/>
    <route id="south_to_east" edges="C0 D1"/>
    <vType id="truck_063_white" accel="1.2" decel="3.0" sigma="0.2" length="8.0" maxSpeed="6.3" color="1,1,1"/>
    <vType id="car_054_green" accel="2.5" decel="4.5" sigma="0.8" length="4.0" maxSpeed="5.5" color="0,1,0"/>
    <route id="west_to_north" edges="B0 A1"/>
    <vType id="motorcycle_082_yellow" accel="3.5" decel="5.0" sigma="0.6" length="2.0" maxSpeed="8.3" color="1,1,0"/>
    <vType id="car_128_yellow" accel="2.5" decel="4.5" sigma="0.8" length="4.0" maxSpeed="12.9" color="1,1,0"/>
    <vType id="truck_089_orange" accel="1.2" decel="3.0" sigma="0.2" length="8.0" maxSpeed="9.0" color="1,0.5,0"/>
    <vType id="motorcycle_077_red" accel="3.5" decel="5.0" sigma="0.6" length="2.0" maxSpeed="7.8" color="1,0,0"/>
    <vType id="autorickshaw_040_blue" accel="2.0" decel="4.0" sigma="0.7" length="3.0" maxSpeed="4.0" color="0,0,1"/>
    <vType id="bicycle_083_green" accel="1.0" decel="2.0" sigma="0.5" length="1.8" maxSpeed="8.3" color="0,1,0"/>
    <vType id="motorcycle_084_white" accel="3.5" decel="5.0" sigma="0.6" length="2.0" maxSpeed="8.4" color="1,1,1"/>
    <vType id="car_059_red" accel="2.5" decel="4.5" sigma="0.8" length="4.0" maxSpeed="5.9" color="1,0,0"/>
    <vType id="bicycle_074_green" accel="1.0" decel="2.0" sigma="0.5" length="1.8" maxSpeed="7.4" color="0,1,0"/>
    <vType id="motorcycle_037_white" accel="3.5" decel="5.0" sigma="0.6" length="2.0" maxSpeed="3.7" color="1,1,1"/>
    <vType id="autorickshaw_046_yellow" accel="2.0" decel="4.0" sigma="0.7" length="3.0" maxSpeed="4.6" color="1,1,0"/>
    <vType id="motorcycle_072_red" accel="3.5" decel="5.0" sigma="0.6" length="2.0" maxSpeed="7.3" color="1,0,0"/>
    <vType id="motorcycle_089_blue" accel="3.5" decel="5.0" sigma="0.6" length="2.0" maxSpeed="9.0" color="0,0,1"/>
    <vType id="truck_118_white" accel="1.2" decel="3.0" sigma="0.2" length="8.0" maxSpeed="11.9" color="1,1,1"/>
    <vType id="motorcycle_105_yellow" accel="3.5" decel="5.0" sigma="0.6" length="2.0" maxSpeed="10.5" color="1,1,0"/>
    <vType id="car_080_green" accel="2.5" decel="4.5" sigma="0.8" length="4.0" maxSpeed="8.0" color="0,1,0"/>
    <vType id="autorickshaw_058_blue" accel="2.0" decel="4.0" sigma="0.7" length="3.0" maxSpeed="5.9" color="0,0,1"/>
    <vType id="motorcycle_062_white" accel="3.5" decel="5.0" sigma="0.6" length="2.0" maxSpeed="6.2" color="1,1,1"/>
    <vType id="motorcycle_074_white" accel="3.5" decel="5.0" sigma="0.6" length="2.0" maxSpeed="7.5" color="1,1,1"/>
    <vType id="car_081_white" accel="2.5" decel="4.5" sigma="0.8" length="4.0" maxSpeed="8.1" color="1,1,1"/>
    <vType id="truck_048_green" accel="1.2" decel="3.0" sigma="0.2" length="8.0" maxSpeed="4.9" color="0,1,0"/>
    <vType id="car_089_blue" accel="2.5" decel="4.5" sigma="0.8" length="4.0" maxSpeed="8.9" color="0,0,1"/>
    <vType id="motorcycle_057_red" accel="3.5" decel="5.0" sigma="0.6" length="2.0" maxSpeed="5.7" color="1,0,0"/>
    <vType id="car_071_red" accel="2.5" decel="4.5" sigma="0.8" length="4.0" maxSpeed="7.2" color="1,0,0"/>
    <vType id="autorickshaw_076_green" accel="2.0" decel="4.0" sigma="0.7" length="3.0" maxSpeed="7.6" color="0,1,0"/>
    <vType id="car_042_yellow" accel="2.5" decel="4.5" sigma="0.8" length="4.0" maxSpeed="4.3" color="1,1,0"/>
    <vType id="autorickshaw_065_yellow" accel="2.0" decel="4.0" sigma="0.7" length="3.0" maxSpeed="6.5" color="1,1,0"/>
    <vType id="motorcycle_092_black" accel="3.5" decel="5.0" sigma="0.6" length="2.0" maxSpeed="9.3" color="0,0,0"/>
    <vType id="car_091_blue" accel="2.5" decel="4.5" sigma="0.8" length="4.0" maxSpeed="9.2" color="0,0,1"/>
    <vType id="car_055_green" accel="2.5" decel="4.5" sigma="0.8" length="4.0" maxSpeed="5.5" color="0,1,0"/>
    <vType id="bicycle_057_green" accel="1.0" decel="2.0" sigma="0.5" length="1.8" maxSpeed="5.7" color="0,1,0"/>
    <vType id="truck_075_green" accel="1.2" decel="3.0" sigma="0.2" length="8.0" maxSpeed="7.5" color="0,1,0"/>
    <vType id="car_108_black" accel="2.5" decel="4.5" sigma="0.8" length="4.0" maxSpeed="10.9" color="0,0,0"/>
    <vType id="motorcycle_060_black" accel="3.5" decel="5.0" sigma="0.6" length="2.0" maxSpeed="6.0" color="0,0,0"/>
    <vType id="motorcycle_066_yellow" accel="3.5" decel="5.0" sigma="0.6" length="2.0" maxSpeed="6.6" color="1,1,0"/>
    <vType id="autorickshaw_060_blue" accel="2.0" decel="4.0" sigma="0.7" length="3.0" maxSpeed="6.0" color="0,0,1"/>
    <vType id="motorcycle_087_red" accel="3.5" decel="5.0" sigma="0.6" length="2.0" maxSpeed="8.7" color="1,0,0"/>
    <vType id="car_051_orange" accel="2.5" decel="4.5" sigma="0.8" length="4.0" maxSpeed="5.2" color="1,0.5,0"/>
    <vType id="autorickshaw_089_blue" accel="2.0" decel="4.0" sigma="0.7" length="3.0" maxSpeed="8.9" color="0,0,1"/>
    <vType id="autorickshaw_078_green" accel="2.0" decel="4.0" sigma="0.7" length="3.0" maxSpeed="7.8" color="0,1,0"/>
    <vType id="motorcycle_087_yellow" accel="3.5" decel="5.0" sigma="0.6" length="2.0" maxSpeed="8.8" color="1,1,0"/>
    <vType id="motorcycle_086_blue" accel="3.5" decel="5.0" sigma="0.6" length="2.0" maxSpeed="8.6" color="0,0,1"/>
    <vType id="motorcycle_061_blue" accel="3.5" decel="5.0" sigma="0.6" length="2.0" maxSpeed="6.1" color="0,0,1"/>
    <vType id="motorcycle_079_yellow" accel="3.5" decel="5.0" sigma="0.6" length="2.0" maxSpeed="8.0" color="1,1,0"/>
    <vType id="motorcycle_053_red" accel="3.5" decel="5.0" sigma="0.6" length="2.0" maxSpeed="5.3" color="1,0,0"/>
    <vType id="car_076_red" accel="2.5" decel="4.5" sigma="0.8" length="4.0" maxSpeed="7.7" color="1,0,0"/>
    <vType id="motorcycle_033_blue" accel="3.5" decel="5.0" sigma="0.6" length="2.0" maxSpeed="3.4" color="0,0,1"/>
    <vType id="truck_056_blue" accel="1.2" decel="3.0" sigma="0.2" length="8.0" maxSpeed="5.7" color="0,0,1"/>
    <vType id="truck_078_white" accel="1.2" decel="3.0" sigma="0.2" length="8.0" maxSpeed="7.8" color="1,1,1"/>
    <vType id="autorickshaw_076_blue" accel="2.0" decel="4.0" sigma="0.7" length="3.0" maxSpeed="7.6" color="0,0,1"/>
    <vType id="truck_069_black" accel="1.2" decel="3.0" sigma="0.2" length="8.0" maxSpeed="6.9" color="0,0,0"/>
    <vType id="motorcycle_075_red" accel="3.5" decel="5.0" sigma="0.6" length="2.0" maxSpeed="7.5" color="1,0,0"/>
    <vType id="motorcycle_083_red" accel="3.5" decel="5.0" sigma="0.6" length="2.0" maxSpeed="8.3" color="1,0,0"/>
    <vType id="motorcycle_089_yellow" accel="3.5" decel="5.0" sigma="0.6" length="2.0" maxSpeed="8.9" color="1,1,0"/>
    <vType id="motorcycle_054_blue" accel="3.5" decel="5.0" sigma="0.6" length="2.0" maxSpeed="5.5" color="0,0,1"/>
    <vType id="motorcycle_080_blue" accel="3.5" decel="5.0" sigma="0.6" length="2.0" maxSpeed="8.1" color="0,0,1"/>
    <vType id="car_090_orange" accel="2.5" decel="4.5" sigma="0.8" length="4.0" maxSpeed="9.0" color="1,0.5,0"/>
    <vType id="bicycle_049_yellow" accel="1.0" decel="2.0" sigma="0.5" length="1.8" maxSpeed="4.9" color="1,1,0"/>
    <vType id="autorickshaw_108_blue" accel="2.0" decel="4.0" sigma="0.7" length="3.0" maxSpeed="10.8" color="0,0,1"/>
    <vType id="motorcycle_094_white" accel="3.5" decel="5.0" sigma="0.6" length="2.0" maxSpeed="9.4" color="1,1,1"/>
    <vType id="truck_103_green" accel="1.2" decel="3.0" sigma="0.2" length="8.0" maxSpeed="10.3" color="0,1,0"/>
    <vType id="car_116_black" accel="2.5" decel="4.5" sigma="0.8" length="4.0" maxSpeed="11.7" color="0,0,0"/>
    <vType id="car_077_blue" accel="2.5" decel="4.5" sigma="0.8" length="4.0" maxSpeed="7.8" color="0,0,1"/>
    <vType id="car_061_green" accel="2.5" decel="4.5" sigma="0.8" length="4.0" maxSpeed="6.2" color="0,1,0"/>
    <vType id="car_039_orange" accel="2.5" decel="4.5" sigma="0.8" length="4.0" maxSpeed="3.9" color="1,0.5,0"/>
    <vType id="truck_072_green" accel="1.2" decel="3.0" sigma="0.2" length="8.0" maxSpeed="7.2" color="0,1,0"/>
    <vType id="car_038_white" accel="2.5" decel="4.5" sigma="0.8" length="4.0" maxSpeed="3.8" color="1,1,1"/>
    <vType id="bicycle_047_green" accel="1.0" decel="2.0" sigma="0.5" length="1.8" maxSpeed="4.7" color="0,1,0"/>
    <vType id="car_064_orange" accel="2.5" decel="4.5" sigma="0.8" length="4.0" maxSpeed="6.4" color="1,0.5,0"/>
    <vType id="motorcycle_051_yellow" accel="3.5" decel="5.0" sigma="0.6" length="2.0" maxSpeed="5.2" color="1,1,0"/>
    <vType id="car_052_white" accel="2.5" decel="4.5" sigma="0.8" length="4.0" maxSpeed="5.2" color="1,1,1"/>
    <vType id="car_071_yellow" accel="2.5" decel="4.5" sigma="0.8" length="4.0" maxSpeed="7.1" color="1,1,0"/>
    <vType id="motorcycle_057_black" accel="3.5" decel="5.0" sigma="0.6" length="2.0" maxSpeed="5.8" color="0,0,0"/>
    <vType id="car_038_green" accel="2.5" decel="4.5" sigma="0.8" length="4.0" maxSpeed="3.9" color="0,1,0"/>
    <vType id="car_067_yellow" accel="2.5" decel="4.5" sigma="0.8" length="4.0" maxSpeed="6.8" color="1,1,0"/>
    <vType id="car_094_blue" accel="2.5" decel="4.5" sigma="0.8" length="4.0" maxSpeed="9.4" color="0,0,1"/>
    <vType id="motorcycle_052_blue" accel="3.5" decel="5.0" sigma="0.6" length="2.0" maxSpeed="5.2" color="0,0,1"/>
    <vType id="car_062_green" accel="2.5" decel="4.5" sigma="0.8" length="4.0" maxSpeed="6.3" color="0,1,0"/>
    <vType id="motorcycle_054_white" accel="3.5" decel="5.0" sigma="0.6" length="2.0" maxSpeed="5.5" color="1,1,1"/>
    <vType id="car_074_blue" accel="2.5" decel="4.5" sigma="0.8" length="4.0" maxSpeed="7.4" color="0,0,1"/>
    <vType id="car_053_yellow" accel="2.5" decel="4.5" sigma="0.8" length="4.0" maxSpeed="5.4" color="1,1,0"/>
    <vType id="motorcycle_095_red" accel="3.5" decel="5.0" sigma="0.6" length="2.0" maxSpeed="9.6" color="1,0,0"/>
    <vType id="car_070_green" accel="2.5" decel="4.5" sigma="0.8" length="4.0" maxSpeed="7.1" color="0,1,0"/>
    <vType id="motorcycle_024_blue" accel="3.5" decel="5.0" sigma="0.6" length="2.0" maxSpeed="2.5" color="0,0,1"/>
    <vType id="autorickshaw_054_yellow" accel="2.0" decel="4.0" sigma="0.7" length="3.0" maxSpeed="5.4" color="1,1,0"/>
    <vType id="motorcycle_071_yellow" accel="3.5" decel="5.0" sigma="0.6" length="2.0" maxSpeed="7.1" color="1,1,0"/>
    <vType id="motorcycle_062_red" accel="3.5" decel="5.0" sigma="0.6" length="2.0" maxSpeed="6.3" color="1,0,0"/>
    <vType id="motorcycle_072_black" accel="3.5" decel="5.0" sigma="0.6" length="2.0" maxSpeed="7.2" color="0,0,0"/>
    <vType id="motorcycle_102_white" accel="3.5" decel="5.0" sigma="0.6" length="2.0" maxSpeed="10.3" color="1,1,1"/>
    <vType id="truck_083_blue" accel="1.2" decel="3.0" sigma="0.2" length="8.0" maxSpeed="8.3" color="0,0,1"/>
    <vType id="motorcycle_051_black" accel="3.5" decel="5.0" sigma="0.6" length="2.0" maxSpeed="5.1" color="0,0,0"/>
    <vType id="motorcycle_067_yellow" accel="3.5" decel="5.0" sigma="0.6" length="2.0" maxSpeed="6.7" color="1,1,0"/>
    <vType id="bicycle_072_green" accel="1.0" decel="2.0" sigma="0.5" length="1.8" maxSpeed="7.3" color="0,1,0"/>
    <vType id="motorcycle_025_red" accel="3.5" decel="5.0" sigma="0.6" length="2.0" maxSpeed="2.5" color="1,0,0"/>
    <vType id="car_084_green" accel="2.5" decel="4.5" sigma="0.8" length="4.0" maxSpeed="8.5" color="0,1,0"/>
    <vType id="car_084_black" accel="2.5" decel="4.5" sigma="0.8" length="4.0" maxSpeed="8.5" color="0,0,0"/>
    <vType id="car_056_white" accel="2.5" decel="4.5" sigma="0.8" length="4.0" maxSpeed="5.7" color="1,1,1"/>
    <vType id="motorcycle_071_red" accel="3.5" decel="5.0" sigma="0.6" length="2.0" maxSpeed="7.1" color="1,0,0"/>
    <vType id="car_091_white" accel="2.5" decel="4.5" sigma="0.8" length="4.0" maxSpeed="9.2" color="1,1,1"/>
    <vType id="bicycle_047_blue" accel="1.0" decel="2.0" sigma="0.5" length="1.8" maxSpeed="4.8" color="0,0,1"/>
    <vType id="autorickshaw_048_yellow" accel="2.0" decel="4.0" sigma="0.7" length="3.0" maxSpeed="4.8" color="1,1,0"/>
    <vType id="motorcycle_026_black" accel="3.5" decel="5.0" sigma="0.6" length="2.0" maxSpeed="2.7" color="0,0,0"/>
    <vType id="truck_097_blue" accel="1.2" decel="3.0" sigma="0.2" length="8.0" maxSpeed="9.7" color="0,0,1"/>
    <vType id="bus_102_blue" accel="1.5" decel="3.5" sigma="0.3" length="12.0" maxSpeed="10.2" color="0,0,1"/>
    <vType id="motorcycle_111_red" accel="3.5" decel="5.0" sigma="0.6" length="2.0" maxSpeed="11.1" color="1,0,0"/>
    <vType id="truck_058_yellow" accel="1.2" decel="3.0" sigma="0.2" length="8.0" maxSpeed="5.9" color="1,1,0"/>
    <vType id="motorcycle_029_blue" accel="3.5" decel="5.0" sigma="0.6" length="2.0" maxSpeed="2.9" color="0,0,1"/>
    <vType id="motorcycle_088_blue" accel="3.5" decel="5.0" sigma="0.6" length="2.0" maxSpeed="8.9" color="0,0,1"/>
    <vType id="motorcycle_064_white" accel="3.5" decel="5.0" sigma="0.6" length="2.0" maxSpeed="6.4" color="1,1,1"/>
    <vType id="car_077_black" accel="2.5" decel="4.5" sigma="0.8" length="4.0" maxSpeed="7.7" color="0,0,0"/>
    <vType id="bus_070_black" accel="1.5" decel="3.5" sigma="0.3" length="12.0" maxSpeed="7.1" color="0,0,0"/>
    <vType id="autorickshaw_041_white" accel="2.0" decel="4.0" sigma="0.7" length="3.0" maxSpeed="4.2" color="1,1,1"/>
    <vType id="motorcycle_043_yellow" accel="3.5" decel="5.0" sigma="0.6" length="2.0" maxSpeed="4.3" color="1,1,0"/>
    <vType id="bicycle_089_green" accel="1.0" decel="2.0" sigma="0.5" length="1.8" maxSpeed="9.0" color="0,1,0"/>
    <vType id="bus_084_orange" accel="1.5" decel="3.5" sigma="0.3" length="12.0" maxSpeed="8.5" color="1,0.5,0"/>
    <vType id="car_062_red" accel="2.5" decel="4.5" sigma="0.8" length="4.0" maxSpeed="6.2" color="1,0,0"/>
    <vType id="motorcycle_085_red" accel="3.5" decel="5.0" sigma="0.6" length="2.0" maxSpeed="8.5" color="1,0,0"/>
    <vType id="motorcycle_064_black" accel="3.5" decel="5.0" sigma="0.6" length="2.0" maxSpeed="6.4" color="0,0,0"/>
    <vType id="bus_061_yellow" accel="1.5" decel="3.5" sigma="0.3" length="12.0" maxSpeed="6.2" color="1,1,0"/>
    <vType id="car_065_green" accel="2.5" decel="4.5" sigma="0.8" length="4.0" maxSpeed="6.6" color="0,1,0"/>
    <vType id="car_079_blue" accel="2.5" decel="4.5" sigma="0.8" length="4.0" maxSpeed="7.9" color="0,0,1"/>
    <vType id="car_107_blue" accel="2.5" decel="4.5" sigma="0.8" length="4.0" maxSpeed="10.7" color="0,0,1"/>
    <vType id="car_047_black" accel="2.5" decel="4.5" sigma="0.8" length="4.0" maxSpeed="4.7" color="0,0,0"/>
    <vType id="car_086_white" accel="2.5" decel="4.5" sigma="0.8" length="4.0" maxSpeed="8.7" color="1,1,1"/>
    <vType id="motorcycle_054_red" accel="3.5" decel="5.0" sigma="0.6" length="2.0" maxSpeed="5.4" color="1,0,0"/>
    <vType id="bicycle_107_green" accel="1.0" decel="2.0" sigma="0.5" length="1.8" maxSpeed="10.7" color="0,1,0"/>
    <vType id="car_047_white" accel="2.5" decel="4.5" sigma="0.8" length="4.0" maxSpeed="4.7" color="1,1,1"/>
    <vType id="car_065_blue" accel="2.5" decel="4.5" sigma="0.8" length="4.0" maxSpeed="6.5" color="0,0,1"/>
    <vType id="bicycle_033_yellow" accel="1.0" decel="2.0" sigma="0.5" length="1.8" maxSpeed="3.3" color="1,1,0"/>
    <vType id="motorcycle_119_blue" accel="3.5" decel="5.0" sigma="0.6" length="2.0" maxSpeed="11.9" color="0,0,1"/>
    <vType id="car_080_yellow" accel="2.5" decel="4.5" sigma="0.8" length="4.0" maxSpeed="8.1" color="1,1,0"/>
    <vType id="autorickshaw_062_white" accel="2.0" decel="4.0" sigma="0.7" length="3.0" maxSpeed="6.3" color="1,1,1"/>
    <vType id="motorcycle_035_white" accel="3.5" decel="5.0" sigma="0.6" length="2.0" maxSpeed="3.6" color="1,1,1"/>
    <vType id="car_072_black" accel="2.5" decel="4.5" sigma="0.8" length="4.0" maxSpeed="7.3" color="0,0,0"/>
    <vType id="car_085_orange" accel="2.5" decel="4.5" sigma="0.8" length="4.0" maxSpeed="8.6" color="1,0.5,0"/>
    <vType id="motorcycle_055_black" accel="3.5" decel="5.0" sigma="0.6" length="2.0" maxSpeed="5.5" color="0,0,0"/>
    <vType id="car_037_black" accel="2.5" decel="4.5" sigma="0.8" length="4.0" maxSpeed="3.8" color="0,0,0"/>
    <vType id="car_023_blue" accel="2.5" decel="4.5" sigma="0.8" length="4.0" maxSpeed="2.4" color="0,0,1"/>
    <vType id="bicycle_066_blue" accel="1.0" decel="2.0" sigma="0.5" length="1.8" maxSpeed="6.7" color="0,0,1"/>
    <vType id="motorcycle_065_white" accel="3.5" decel="5.0" sigma="0.6" length="2.0" maxSpeed="6.6" color="1,1,1"/>
    <vType id="autorickshaw_051_yellow" accel="2.0" decel="4.0" sigma="0.7" length="3.0" maxSpeed="5.2" color="1,1,0"/>
    <vType id="motorcycle_061_yellow" accel="3.5" decel="5.0" sigma="0.6" length="2.0" maxSpeed="6.1" color="1,1,0"/>
    <vType id="motorcycle_057_white" accel="3.5" decel="5.0" sigma="0.6" length="2.0" maxSpeed="5.7" color="1,1,1"/>
    <vType id="car_057_white" accel="2.5" decel="4.5" sigma="0.8" length="4.0" maxSpeed="5.8" color="1,1,1"/>
    <vType id="car_074_white" accel="2.5" decel="4.5" sigma="0.8" length="4.0" maxSpeed="7.5" color="1,1,1"/>
    <vType id="car_023_black" accel="2.5" decel="4.5" sigma="0.8" length="4.0" maxSpeed="2.3" color="0,0,0"/>
    <vType id="motorcycle_061_black" accel="3.5" decel="5.0" sigma="0.6" length="2.0" maxSpeed="6.1" color="0,0,0"/>
    <vType id="motorcycle_073_blue" accel="3.5" decel="5.0" sigma="0.6" length="2.0" maxSpeed="7.3" color="0,0,1"/>
    <vType id="motorcycle_073_white" accel="3.5" decel="5.0" sigma="0.6" length="2.0" maxSpeed="7.4" color="1,1,1"/>
    <vType id="motorcycle_045_red" accel="3.5" decel="5.0" sigma="0.6" length="2.0" maxSpeed="4.6" color="1,0,0"/>
    <vType id="motorcycle_104_white" accel="3.5" decel="5.0" sigma="0.6" length="2.0" maxSpeed="10.5" color="1,1,1"/>
    <vType id="car_060_red" accel="2.5" decel="4.5" sigma="0.8" length="4.0" maxSpeed="6.1" color="1,0,0"/>
    <vType id="car_060_blue" accel="2.5" decel="4.5" sigma="0.8" length="4.0" maxSpeed="6.0" color="0,0,1"/>
    <vType id="truck_086_blue" accel="1.2" decel="3.0" sigma="0.2" length="8.0" maxSpeed="8.7" color="0,0,1"/>
    <vType id="motorcycle_045_yellow" accel="3.5" decel="5.0" sigma="0.6" length="2.0" maxSpeed="4.6" color="1,1,0"/>
    <vType id="bus_094_yellow" accel="1.5" decel="3.5" sigma="0.3" length="12.0" maxSpeed="9.4" color="1,1,0"/>
    <vType id="motorcycle_063_black" accel="3.5" decel="5.0" sigma="0.6" length="2.0" maxSpeed="6.3" color="0,0,0"/>
    <vType id="truck_063_orange" accel="1.2" decel="3.0" sigma="0.2" length="8.0" maxSpeed="6.3" color="1,0.5,0"/>
    <vType id="autorickshaw_078_blue" accel="2.0" decel="4.0" sigma="0.7" length="3.0" maxSpeed="7.9" color="0,0,1"/>
    <vType id="motorcycle_040_yellow" accel="3.5" decel="5.0" sigma="0.6" length="2.0" maxSpeed="4.1" color="1,1,0"/>
    <vType id="bicycle_063_yellow" accel="1.0" decel="2.0" sigma="0.5" length="1.8" maxSpeed="6.4" color="1,1,0"/>
    <vType id="car_050_black" accel="2.5" decel="4.5" sigma="0.8" length="4.0" maxSpeed="5.0" color="0,0,0"/>
    <vType id="truck_070_black" accel="1.2" decel="3.0" sigma="0.2" length="8.0" maxSpeed="7.0" color="0,0,0"/>
    <vType id="motorcycle_087_blue" accel="3.5" decel="5.0" sigma="0.6" length="2.0" maxSpeed="8.8" color="0,0,1"/>
    <vType id="autorickshaw_093_white" accel="2.0" decel="4.0" sigma="0.7" length="3.0" maxSpeed="9.3" color="1,1,1"/>
    <vType id="car_068_white" accel="2.5" decel="4.5" sigma="0.8" length="4.0" maxSpeed="6.9" color="1,1,1"/>
    <vType id="motorcycle_105_red" accel="3.5" decel="5.0" sigma="0.6" length="2.0" maxSpeed="10.6" color="1,0,0"/>
    <vType id="car_062_white" accel="2.5" decel="4.5" sigma="0.8" length="4.0" maxSpeed="6.2" color="1,1,1"/>
    <vType id="bus_068_red" accel="1.5" decel="3.5" sigma="0.3" length="12.0" maxSpeed="6.9" color="1,0,0"/>
    <vType id="bus_061_red" accel="1.5" decel="3.5" sigma="0.3" length="12.0" maxSpeed="6.2" color="1,0,0"/>
    <vType id="truck_067_blue" accel="1.2" decel="3.0" sigma="0.2" length="8.0" maxSpeed="6.7" color="0,0,1"/>
    <vType id="car_040_red" accel="2.5" decel="4.5" sigma="0.8" length="4.0" maxSpeed="4.1" color="1,0,0"/>
    <vType id="motorcycle_055_yellow" accel="3.5" decel="5.0" sigma="0.6" length="2.0" maxSpeed="5.5" color="1,1,0"/>
    <vType id="car_058_white" accel="2.5" decel="4.5" sigma="0.8" length="4.0" maxSpeed="5.9" color="1,1,1"/>
    <vType id="motorcycle_041_white" accel="3.5" decel="5.0" sigma="0.6" length="2.0" maxSpeed="4.2" color="1,1,1"/>
    <vType id="car_046_black" accel="2.5" decel="4.5" sigma="0.8" length="4.0" maxSpeed="4.7" color="0,0,0"/>
    <vType id="bus_054_orange" accel="1.5" decel="3.5" sigma="0.3" length="12.0" maxSpeed="5.5" color="1,0.5,0"/>
    <vType id="bicycle_073_blue" accel="1.0" decel="2.0" sigma="0.5" length="1.8" maxSpeed="7.3" color="0,0,1"/>
    <vType id="car_069_black" accel="2.5" decel="4.5" sigma="0.8" length="4.0" maxSpeed="6.9" color="0,0,0"/>
    <vType id="bus_025_orange" accel="1.5" decel="3.5" sigma="0.3" length="12.0" maxSpeed="2.5" color="1,0.5,0"/>
    <vType id="car_067_white" accel="2.5" decel="4.5" sigma="0.8" length="4.0" maxSpeed="6.7" color="1,1,1"/>
    <vType id="car_078_red" accel="2.5" decel="4.5" sigma="0.8" length="4.0" maxSpeed="7.9" color="1,0,0"/>
    <vType id="car_096_blue" accel="2.5" decel="4.5" sigma="0.8" length="4.0" maxSpeed="9.7" color="0,0,1"/>
    <vType id="car_082_green" accel="2.5" decel="4.5" sigma="0.8" length="4.0" maxSpeed="8.3" color="0,1,0"/>
    <vType id="car_081_yellow" accel="2.5" decel="4.5" sigma="0.8" length="4.0" maxSpeed="8.1" color="1,1,0"/>
    <vType id="car_045_white" accel="2.5" decel="4.5" sigma="0.8" length="4.0" maxSpeed="4.5" color="1,1,1"/>
    <vType id="car_076_green" accel="2.5" decel="4.5" sigma="0.8" length="4.0" maxSpeed="7.6" color="0,1,0"/>
    <vType id="motorcycle_090_black" accel="3.5" decel="5.0" sigma="0.6" length="2.0" maxSpeed="9.0" color="0,0,0"/>
    <vType id="motorcycle_039_black" accel="3.5" decel="5.0" sigma="0.6" length="2.0" maxSpeed="3.9" color="0,0,0"/>
    <vType id="car_046_orange" accel="2.5" decel="4.5" sigma="0.8" length="4.0" maxSpeed="4.6" color="1,0.5,0"/>
    <vType id="car_055_white" accel="2.5" decel="4.5" sigma="0.8" length="4.0" maxSpeed="5.6" color="1,1,1"/>
    <vType id="car_067_orange" accel="2.5" decel="4.5" sigma="0.8" length="4.0" maxSpeed="6.8" color="1,0.5,0"/>
    <vType id="motorcycle_056_blue" accel="3.5" decel="5.0" sigma="0.6" length="2.0" maxSpeed="5.6" color="0,0,1"/>
    <vType id="car_066_black" accel="2.5" decel="4.5" sigma="0.8" length="4.0" maxSpeed="6.6" color="0,0,0"/>
    <vType id="car_049_orange" accel="2.5" decel="4.5" sigma="0.8" length="4.0" maxSpeed="4.9" color="1,0.5,0"/>
    <vType id="car_029_blue" accel="2.5" decel="4.5" sigma="0.8" length="4.0" maxSpeed="2.9" color="0,0,1"/>
    <vType id="motorcycle_101_red" accel="3.5" decel="5.0" sigma="0.6" length="2.0" maxSpeed="10.2" color="1,0,0"/>
    <vType id="motorcycle_072_white" accel="3.5" decel="5.0" sigma="0.6" length="2.0" maxSpeed="7.2" color="1,1,1"/>
    <vType id="autorickshaw_065_white" accel="2.0" decel="4.0" sigma="0.7" length="3.0" maxSpeed="6.5" color="1,1,1"/>
    <vType id="bus_090_yellow" accel="1.5" decel="3.5" sigma="0.3" length="12.0" maxSpeed="9.1" color="1,1,0"/>
    <vType id="truck_088_red" accel="1.2" decel="3.0" sigma="0.2" length="8.0" maxSpeed="8.9" color="1,0,0"/>
    <vType id="motorcycle_045_blue" accel="3.5" decel="5.0" sigma="0.6" length="2.0" maxSpeed="4.6" color="0,0,1"/>
    <vType id="motorcycle_033_black" accel="3.5" decel="5.0" sigma="0.6" length="2.0" maxSpeed="3.3" color="0,0,0"/>
    <vType id="bus_073_blue" accel="1.5" decel="3.5" sigma="0.3" length="12.0" maxSpeed="7.3" color="0,0,1"/>
    <vType id="autorickshaw_052_yellow" accel="2.0" decel="4.0" sigma="0.7" length="3.0" maxSpeed="5.2" color="1,1,0"/>
    <vType id="motorcycle_093_red" accel="3.5" decel="5.0" sigma="0.6" length="2.0" maxSpeed="9.4" color="1,0,0"/>
    <vType id="car_056_red" accel="2.5" decel="4.5" sigma="0.8" length="4.0" maxSpeed="5.7" color="1,0,0"/>
    <vType id="motorcycle_050_black" accel="3.5" decel="5.0" sigma="0.6" length="2.0" maxSpeed="5.0" color="0,0,0"/>
    <vType id="motorcycle_048_white" accel="3.5" decel="5.0" sigma="0.6" length="2.0" maxSpeed="4.8" color="1,1,1"/>
    <vType id="car_057_blue" accel="2.5" decel="4.5" sigma="0.8" length="4.0" maxSpeed="5.8" color="0,0,1"/>
    <vType id="truck_097_yellow" accel="1.2" decel="3.0" sigma="0.2" length="8.0" maxSpeed="9.7" color="1,1,0"/>
    <vType id="autorickshaw_067_white" accel="2.0" decel="4.0" sigma="0.7" length="3.0" maxSpeed="6.8" color="1,1,1"/>
    <vType id="bus_077_blue" accel="1.5" decel="3.5" sigma="0.3" length="12.0" maxSpeed="7.8" color="0,0,1"/>
    <vType id="car_094_orange" accel="2.5" decel="4.5" sigma="0.8" length="4.0" maxSpeed="9.5" color="1,0.5,0"/>
    <vType id="truck_037_yellow" accel="1.2" decel="3.0" sigma="0.2" length="8.0" maxSpeed="3.7" color="1,1,0"/>
    <vType id="motorcycle_083_black" accel="3.5" decel="5.0" sigma="0.6" length="2.0" maxSpeed="8.3" color="0,0,0"/>
    <vType id="bicycle_062_yellow" accel="1.0" decel="2.0" sigma="0.5" length="1.8" maxSpeed="6.3" color="1,1,0"/>
    <vType id="car_068_yellow" accel="2.5" decel="4.5" sigma="0.8" length="4.0" maxSpeed="6.8" color="1,1,0"/>
    <vType id="motorcycle_064_red" accel="3.5" decel="5.0" sigma="0.6" length="2.0" maxSpeed="6.4" color="1,0,0"/>
    <vType id="autorickshaw_066_yellow" accel="2.0" decel="4.0" sigma="0.7" length="3.0" maxSpeed="6.7" color="1,1,0"/>
    <vType id="autorickshaw_076_white" accel="2.0" decel="4.0" sigma="0.7" length="3.0" maxSpeed="7.6" color="1,1,1"/>
    <vType id="car_102_yellow" accel="2.5" decel="4.5" sigma="0.8" length="4.0" maxSpeed="10.3" color="1,1,0"/>
    <vType id="motorcycle_075_yellow" accel="3.5" decel="5.0" sigma="0.6" length="2.0" maxSpeed="7.5" color="1,1,0"/>