<?xml version="1.0" ?>
<routes>
    <vType id="car" accel="2.5" decel="4.5" sigma="0.8" length="4.0" maxSpeed="12.7" color="1,0,0"/>
    <route id="north_to_south" edges="A0 C1"/>
    <vehicle id="car_001" type="truck" route="east_to_west" depart="279"/>
    <vehicle id="car_002" type="truck" route="west_to_east" depart="147"/>
    <vehicle id="car_003" type="truck" route="west_to_east" depart="212"/>
    <vehicle id="car_004" type="truck" route="north_to_south" depart="128"/>
    <vehicle id="car_005" type="bus" route="south_to_north" depart="35"/>
    <vehicle id="car_006" type="car" route="east_to_west" depart="139"/>
    <vehicle id="car_007" type="truck" route="north_to_south" depart="130"/>
    <vehicle id="car_008" type="bus" route="east_to_west" depart="178"/>
    <vehicle id="car_009" type="car" route="west_to_east" depart="218"/>
    <vehicle id="car_010" type="car" route="east_to_west" depart="24"/>
    <vehicle id="car_011" type="bus" route="north_to_south" depart="189"/>
    <vehicle id="car_012" type="bus" route="east_to_west" depart="84"/>
    <vehicle id="car_013" type="car" route="west_to_east" depart="178"/>
    <vehicle id="car_014" type="bus" route="north_to_south" depart="218"/>
    <vehicle id="car_015" type="truck" route="east_to_west" depart="120"/>
    <vehicle id="car_016" type="truck" route="east_to_west" depart="84"/>
    <vehicle id="car_017" type="truck" route="west_to_east" depart="29"/>
    <vehicle id="car_018" type="bus" route="east_to_west" depart="231"/>
    <vehicle id="car_019" type="truck" route="north_to_south" depart="219"/>
    <vehicle id="car_020" type="car" route="west_to_east" depart="262"/>
    <vehicle id="car_021" type="bus" route="south_to_north" depart="123"/>
    <vehicle id="car_022" type="bus" route="west_to_east" depart="243"/>
    <vehicle id="car_023" type="truck" route="west_to_east" depart="116"/>
    <vehicle id="car_024" type="car" route="south_to_north" depart="44"/>
    <vehicle id="car_025" type="car" route="south_to_north" depart="19"/>
    <vehicle id="car_026" type="car" route="east_to_west" depart="127"/>
    <vehicle id="car_027" type="truck" route="west_to_east" depart="182"/>
    <vehicle id="car_028" type="bus" route="south_to_north" depart="148"/>
    <vehicle id="car_029" type="bus" route="south_to_north" depart="26"/>
    <vehicle id="car_030" type="truck" route="north_to_south" depart="243"/>
    <vehicle id="car_031" type="car" route="north_to_south" depart="184"/>
    <vehicle id="car_032" type="bus" route="north_to_south" depart="253"/>
    <vehicle id="car_033" type="truck" route="east_to_west" depart="276"/>
    <vehicle id="car_034" type="truck" route="south_to_north" depart="138"/>
    <vehicle id="car_035" type="bus" route="east_to_west" depart="53"/>
    <vehicle id="car_036" type="car" route="east_to_west" depart="300"/>
    <vehicle id="car_037" type="bus" route="north_to_south" depart="116"/>
    <vehicle id="car_038" type="bus" route="north_to_south" depart="160"/>
    <vehicle id="car_039" type="truck" route="south_to_north" depart="46"/>
    <vehicle id="car_040" type="bus" route="north_to_south" depart="287"/>
    <vehicle id="car_041" type="truck" route="west_to_east" depart="196"/>
    <vehicle id="car_042" type="truck" route="east_to_west" depart="219"/>
    <vehicle id="car_043" type="truck" route="north_to_south" depart="161"/>
    <vehicle id="car_044" type="bus" route="east_to_west" depart="161"/>
    <vehicle id="car_045" type="truck" route="west_to_east" depart="174"/>
    <vehicle id="car_046" type="bus" route="south_to_north" depart="22"/>
    <vehicle id="car_047" type="car" route="north_to_south" depart="279"/>
    <vehicle id="car_048" type="bus" route="west_to_east" depart="71"/>
    <vehicle id="car_049" type="car" route="north_to_south" depart="53"/>
    <vehicle id="car_050" type="truck" route="south_to_north" depart="146"/>
    <vehicle id="car_051" type="car" route="west_to_east" depart="200"/>
    <vehicle id="car_052" type="bus" route="east_to_west" depart="155"/>
    <vehicle id="car_053" type="truck" route="north_to_south" depart="63"/>
    <vehicle id="car_054" type="truck" route="west_to_east" depart="226"/>
    <vehicle id="car_055" type="truck" route="south_to_north" depart="162"/>
    <vehicle id="car_056" type="truck" route="east_to_west" depart="49"/>
    <vehicle id="car_057" type="car" route="south_to_north" depart="175"/>
    <vehicle id="car_058" type="car" route="east_to_west" depart="195"/>
    <vehicle id="car_059" type="truck" route="north_to_south" depart="131"/>
    <vehicle id="car_060" type="truck" route="south_to_north" depart="63"/>
    <vehicle id="car_061" type="bus" route="west_to_east" depart="36"/>
    <vehicle id="car_062" type="truck" route="north_to_south" depart="154"/>
    <vehicle id="car_063" type="bus" route="north_to_south" depart="103"/>
    <vehicle id="car_064" type="car" route="west_to_east" depart="0"/>
    <vehicle id="car_065" type="bus" route="north_to_south" depart="49"/>
    <vehicle id="car_066" type="bus" route="west_to_east" depart="230"/>
    <vehicle id="car_067" type="truck" route="south_to_north" depart="108"/>
    <vehicle id="car_068" type="truck" route="south_to_north" depart="219"/>
    <vehicle id="car_069" type="bus" route="north_to_south" depart="48"/>
    <vehicle id="car_070" type="truck" route="north_to_south" depart="211"/>
    <vehicle id="car_071" type="truck" route="west_to_east" depart="263"/>
    <vehicle id="car_072" type="truck" route="west_to_east" depart="240"/>
    <vehicle id="car_073" type="bus" route="south_to_north" depart="290"/>
    <vehicle id="car_074" type="car" route="south_to_north" depart="299"/>
    <vehicle id="car_075" type="car" route="west_to_east" depart="24"/>
    <vehicle id="car_076" type="bus" route="west_to_east" depart="85"/>
    <vehicle id="car_077" type="car" route="west_to_east" depart="275"/>
    <vehicle id="car_078" type="car" route="south_to_north" depart="225"/>
    <vehicle id="car_079" type="truck" route="west_to_east" depart="220"/>
    <vehicle id="car_080" type="bus" route="east_to_west" depart="131"/>
    <vehicle id="car_081" type="car" route="south_to_north" depart="51"/>
    <vehicle id="car_082" type="bus" route="west_to_east" depart="278"/>
    <vehicle id="car_083" type="bus" route="east_to_west" depart="55"/>
    <vehicle id="car_084" type="truck" route="north_to_south" depart="59"/>
    <vehicle id="car_085" type="car" route="east_to_west" depart="132"/>
    <vehicle id="car_086" type="truck" route="west_to_east" depart="218"/>
    <vehicle id="car_087" type="truck" route="east_to_west" depart="289"/>
    <vehicle id="car_088" type="truck" route="south_to_north" depart="199"/>
    <vehicle id="car_089" type="car" route="east_to_west" depart="186"/>
    <vehicle id="car_090" type="truck" route="north_to_south" depart="67"/>
    <vehicle id="car_091" type="truck" route="north_to_south" depart="185"/>
    <vehicle id="car_092" type="car" route="north_to_south" depart="252"/>
    <vehicle id="car_093" type="bus" route="east_to_west" depart="222"/>
    <vehicle id="car_094" type="bus" route="north_to_south" depart="55"/>
    <vehicle id="car_095" type="car" route="west_to_east" depart="128"/>
    <vehicle id="car_096" type="bus" route="west_to_east" depart="226"/>
    <vehicle id="car_097" type="truck" route="south_to_north" depart="299"/>
    <vehicle id="car_098" type="car" route="west_to_east" depart="278"/>
    <vehicle id="car_099" type="truck" route="north_to_south" depart="58"/>
    <vehicle id="car_100" type="car" route="north_to_south" depart="21"/>
    <vehicle id="car_101" type="car" route="east_to_west" depart="82"/>
    <vehicle id="car_102" type="bus" route="east_to_west" depart="228"/>
    <vehicle id="car_103" type="car" route="north_to_south" depart="18"/>
    <vehicle id="car_104" type="truck" route="north_to_south" depart="228"/>
    <vehicle id="car_105" type="bus" route="south_to_north" depart="145"/>
    <vehicle id="car_106" type="bus" route="south_to_north" depart="170"/>
    <vehicle id="car_107" type="car" route="east_to_west" depart="156"/>
    <vehicle id="car_108" type="truck" route="west_to_east" depart="80"/>
    <vehicle id="car_109" type="car" route="south_to_north" depart="8"/>
    <vehicle id="car_110" type="car" route="south_to_north" depart="5"/>
    <vehicle id="car_111" type="bus" route="west_to_east" depart="37"/>
    <vehicle id="car_112" type="car" route="west_to_east" depart="54"/>
    <vehicle id="car_113" type="car" route="south_to_north" depart="102"/>
    <vehicle id="car_114" type="bus" route="south_to_north" depart="217"/>
    <vehicle id="car_115" type="truck" route="south_to_north" depart="86"/>
    <vehicle id="car_116" type="bus" route="west_to_east" depart="4"/>
    <vehicle id="car_117" type="truck" route="north_to_south" depart="288"/>
    <vehicle id="car_118" type="bus" route="east_to_west" depart="204"/>
    <vehicle id="car_119" type="car" route="west_to_east" depart="17"/>
    <vehicle id="car_120" type="bus" route="east_to_west" depart="13"/>
    <vehicle id="car_121" type="truck" route="south_to_north" depart="96"/>
    <vehicle id="car_122" type="bus" route="east_to_west" depart="253"/>
    <vehicle id="car_123" type="truck" route="north_to_south" depart="281"/>
    <vehicle id="car_124" type="truck" route="south_to_north" depart="49"/>
    <vehicle id="car_125" type="car" route="east_to_west" depart="157"/>
    <vehicle id="car_126" type="car" route="west_to_east" depart="7"/>
    <vehicle id="car_127" type="bus" route="north_to_south" depart="206"/>
    <vehicle id="car_128" type="car" route="north_to_south" depart="112"/>
    <vehicle id="car_129" type="truck" route="south_to_north" depart="20"/>
    <vehicle id="car_130" type="car" route="south_to_north" depart="205"/>
    <vehicle id="car_131" type="truck" route="east_to_west" depart="84"/>
    <vehicle id="car_132" type="truck" route="east_to_west" depart="155"/>
    <vehicle id="car_133" type="truck" route="south_to_north" depart="153"/>
    <vehicle id="car_134" type="car" route="south_to_north" depart="192"/>
    <vehicle id="car_135" type="truck" route="north_to_south" depart="9"/>
    <vehicle id="car_136" type="bus" route="north_to_south" depart="32"/>
    <vehicle id="car_137" type="car" route="west_to_east" depart="274"/>
    <vehicle id="car_138" type="bus" route="east_to_west" depart="207"/>
    <vehicle id="car_139" type="bus" route="south_to_north" depart="89"/>
    <vehicle id="car_140" type="car" route="west_to_east" depart="281"/>
    <vehicle id="car_141" type="car" route="south_to_north" depart="9"/>
    <vehicle id="car_142" type="car" route="east_to_west" depart="105"/>
    <vehicle id="car_143" type="truck" route="west_to_east" depart="50"/>
    <vehicle id="car_144" type="bus" route="north_to_south" depart="144"/>
    <vehicle id="car_145" type="bus" route="south_to_north" depart="206"/>
    <vehicle id="car_146" type="truck" route="south_to_north" depart="42"/>
    <vehicle id="car_147" type="bus" route="west_to_east" depart="279"/>
    <vehicle id="car_148" type="bus" route="east_to_west" depart="296"/>
    <vehicle id="car_149" type="truck" route="north_to_south" depart="241"/>
    <vehicle id="car_150" type="car" route="south_to_north" depart="295"/>
</routes>
