<configuration>
    <input>
        <net-file>../net/network.net.xml</net-file>
        <route-files>../routes/routes.rou.xml</route-files>
    </input>

    <time>
        <begin>0</begin>
        <end>100</end>
    </time>
</configuration>
